data/case2383_mod_ps_old.m
function ps = case2383_mod_ps

ps.baseMVA = 100.000000;

ps.bus = [...
%ID type Pd Qd Gs Bs area Vmag Vang basekV zone Vmax Vmin lam_P lam_Q mu_Vx mu_Vn locX locY 
 1 1 0 0 0 0 1 1 -1.12394 220 1 1.11 0.95 0 0 0 0 97.3995 217.509;
 2 1 0 0 0 0 1 1 -0.68138 220 1 1.11 0.95 0 0 0 0 189.502 96.1595;
 3 1 0 0 0 0 1 1 -29.3003 220 1 1.11 0.95 0 0 0 0 -1243.67 -1192.08;
 4 1 0 0 0 0 1 1 -8.73591 220 1 1.11 0.95 0 0 0 0 -173.303 24.7009;
 5 1 0 0 0 0 1 1 -20.4098 220 1 1.11 0.95 0 0 0 0 -672.037 -643.757;
 6 1 0 0 0 0 1 1 -14.3471 400 1 1.05 0.95 0 0 0 0 -299.36 -555.04;
 7 1 0 0 0 0 1 1 -22.9538 220 1 1.11 0.95 0 0 0 0 -299.034 -210.447;
 8 1 0 0 0 0 1 1 -10.7536 400 1 1.05 0.95 0 0 0 0 -40.4374 -210.52;
 9 1 0 0 0 0 1 1 -17.8142 400 1 1.05 0.95 0 0 0 0 -506.328 -999.214;
 10 2 0 0 0 0 1 1 -22.2504 220 1 1.11 0.95 0 0 0 0 -1067.17 -1004.98;
 11 1 0 0 0 0 1 1 -7.04806 220 1 1.11 0.95 0 0 0 0 -125.184 211.451;
 12 1 0 0 0 0 1 1 -25.233 220 1 1.11 0.95 0 0 0 0 -619.842 128.002;
 13 1 0 0 0 0 1 1 -22.8629 220 1 1.11 0.95 0 0 0 0 -159.087 -392.311;
 14 1 0 0 0 0 1 1 -5.17107 220 1 1.11 0.95 0 0 0 0 39.9706 -3.51388;
 15 1 0 0 0 0 1 1 -16.5694 400 1 1.05 0.95 0 0 0 0 -292.521 -105.099;
 16 2 0 0 0 0 1 1 -0.443775 220 1 1.11 0.95 0 0 0 0 41.6717 63.1925;
 17 2 0 0 0 0 1 1 0.425345 220 1 1.11 0.95 0 0 0 0 89.5299 123.582;
 18 3 0 0 0 0 1 1 0 400 1 1.05 0.95 0 0 0 0 122.766 76.6959;
 19 1 0 0 0 0 1 1 -24.0999 220 1 1.11 0.95 0 0 0 0 -511.302 154.755;
 20 1 0 0 0 0 1 1 -1.78169 400 1 1.05 0.95 0 0 0 0 282.271 729.575;
 21 1 0 0 0 0 1 1 -23.4972 220 1 1.11 0.95 0 0 0 0 -356.573 -296.529;
 22 1 0 0 0 0 1 1 -12.2332 220 1 1.11 0.95 0 0 0 0 -293.247 291.996;
 23 1 0 0 0 0 1 1 -16.6644 220 2 1.11 0.95 0 0 0 0 -99.7634 -1246.13;
 24 1 0 0 0 0 1 1 -12.3287 220 2 1.11 0.95 0 0 0 0 393.655 -1225.18;
 25 1 0 0 0 0 1 1 -10.4138 220 2 1.11 0.95 0 0 0 0 318.46 -1071.16;
 26 1 0 0 0 0 1 1 -20.3407 220 2 1.11 0.95 0 0 0 0 -310.455 -1760.43;
 27 1 0 0 0 0 1 1 -10.4032 220 2 1.11 0.95 0 0 0 0 254.409 -236.677;
 28 1 0 0 0 0 1 1 -10.3987 220 2 1.11 0.95 0 0 0 0 386.922 -485.676;
 29 2 0 0 0 0 1 1 -13.6862 220 2 1.11 0.95 0 0 0 0 -157.553 -521.26;
 30 2 0 0 0 0 1 1 -13.6772 220 2 1.11 0.95 0 0 0 0 -155.348 -700.431;
 31 2 0 0 0 0 1 1 -10.4663 400 2 1.05 0.95 0 0 0 0 -92.7216 -524.766;
 32 1 0 0 0 0 1 1 -10.5009 400 2 1.05 0.95 0 0 0 0 -237.494 -888.345;
 33 1 0 0 0 0 1 1 -11.3503 220 2 1.11 0.95 0 0 0 0 294.384 -349.833;
 34 1 0 0 0 0 1 1 -10.8543 400 2 1.05 0.95 0 0 0 0 482.166 -1288.24;
 35 1 0 0 0 0 1 1 -10.8636 400 2 1.05 0.95 0 0 0 0 460.463 -1464.06;
 36 1 0 0 0 0 1 1 -14.1565 400 2 1.05 0.95 0 0 0 0 -389.986 -1249.38;
 37 1 0 0 0 0 1 1 -18.0692 220 2 1.11 0.95 0 0 0 0 -199.76 -1609.34;
 38 1 0 0 0 0 1 1 -18.0683 220 2 1.11 0.95 0 0 0 0 -255.315 -1696.64;
 39 1 0 0 0 0 1 1 -9.53866 400 2 1.05 0.95 0 0 0 0 111.636 -586.039;
 40 1 0 0 0 0 1 1 -9.52929 400 2 1.05 0.95 0 0 0 0 236.089 -853.253;
 41 2 0 0 0 0 1 1 -7.97368 220 2 1.11 0.95 0 0 0 0 570.488 -900.476;
 42 2 0 0 0 0 1 1 -7.98247 220 2 1.11 0.95 0 0 0 0 478.071 -918.059;
 43 2 0 0 0 0 1 1 -7.0234 400 2 1.05 0.95 0 0 0 0 420.454 -820.249;
 44 2 0 0 0 0 1 1 -7.0375 400 2 1.05 0.95 0 0 0 0 324.713 -883.08;
 45 2 0 0 0 0 1 1 -15.4327 220 2 1.11 0.95 0 0 0 0 -110.793 -651.38;
 46 1 0 0 0 0 1 1 -15.4308 220 2 1.11 0.95 0 0 0 0 -175.203 -967.187;
 47 1 0 0 0 0 1 1 -11.1743 220 2 1.11 0.95 0 0 0 0 386.892 -770.604;
 48 1 0 0 0 0 1 1 -14.5228 220 2 1.11 0.95 0 0 0 0 0.906815 -413.541;
 49 1 0 0 0 0 1 1 -14.5269 220 2 1.11 0.95 0 0 0 0 -52.4773 -575.74;
 50 1 0 0 0 0 1 1 -8.85481 400 2 1.05 0.95 0 0 0 0 514.799 -814.203;
 51 1 0 0 0 0 1 1 -8.8753 400 2 1.05 0.95 0 0 0 0 534.684 -1040.73;
 52 1 0 0 0 0 1 1 -13.208 220 2 1.11 0.95 0 0 0 0 -8.13244 -1258.67;
 53 1 0 0 0 0 1 1 -13.0175 220 2 1.11 0.95 0 0 0 0 58.0885 -1188.31;
 54 1 0 0 0 0 1 1 -10.3377 220 2 1.11 0.95 0 0 0 0 436.849 -1021.7;
 55 1 0 0 0 0 1 1 -16.9791 220 2 1.11 0.95 0 0 0 0 -242.858 -1859.68;
 56 1 0 0 0 0 1 1 -5.09922 220 3 1.11 0.95 0 0 0 0 390.738 188.08;
 57 1 0 0 0 0 1 1 -7.69065 220 3 1.11 0.95 0 0 0 0 1009.92 -902.671;
 58 1 0 0 0 0 1 1 -7.68683 220 3 1.11 0.95 0 0 0 0 941.138 -957.06;
 59 1 0 0 0 0 1 1 0.327302 220 3 1.11 0.95 0 0 0 0 1685.27 -992.038;
 60 1 0 0 0 0 1 1 -3.98908 220 3 1.11 0.95 0 0 0 0 1165.66 585.87;
 61 1 0 0 0 0 1 1 2.26873 220 3 1.11 0.95 0 0 0 0 1472.34 -545.605;
 62 1 0 0 0 0 1 1 2.27002 220 3 1.11 0.95 0 0 0 0 1627.65 -761.289;
 63 2 0 0 0 0 1 1 0.950103 220 3 1.11 0.95 0 0 0 0 1318.64 -898.426;
 64 2 0 0 0 0 1 1 0.913788 220 3 1.11 0.95 0 0 0 0 1258.22 -585.831;
 65 1 0 0 0 0 1 1 -1.26018 220 3 1.11 0.95 0 0 0 0 1508.51 -443.249;
 66 1 0 0 0 0 1 1 -7.42101 220 3 1.11 0.95 0 0 0 0 442.673 1309.74;
 67 2 0 0 0 0 1 1 -5.34131 400 3 1.05 0.95 0 0 0 0 311.455 1098.61;
 68 1 0 0 0 0 1 1 -6.27113 220 3 1.11 0.95 0 0 0 0 751.459 1234.17;
 69 1 0 0 0 0 1 1 -0.636557 220 3 1.11 0.95 0 0 0 0 1537.99 -213.54;
 70 1 0 0 0 0 1 1 -4.1694 220 3 1.11 0.95 0 0 0 0 368.478 10.0222;
 71 1 0 0 0 0 1 1 -2.12019 220 3 1.11 0.95 0 0 0 0 1227.74 -484.893;
 72 1 0 0 0 0 1 1 -2.12019 220 3 1.11 0.95 0 0 0 0 1215.09 -437.935;
 73 1 0 0 0 0 1 1 -3.30474 220 3 1.11 0.95 0 0 0 0 313.727 -153.468;
 74 1 0 0 0 0 1 1 -4.2787 220 3 1.11 0.95 0 0 0 0 319.117 -37.9934;
 75 1 0 0 0 0 1 1 -2.33244 400 3 1.05 0.95 0 0 0 0 246.991 -22.2608;
 76 1 0 0 0 0 1 1 -2.33831 400 3 1.05 0.95 0 0 0 0 328.98 76.2828;
 77 1 0 0 0 0 1 1 -2.56733 220 3 1.11 0.95 0 0 0 0 1561.96 -287.269;
 78 1 0 0 0 0 1 1 -4.84962 220 3 1.11 0.95 0 0 0 0 850.068 843.006;
 79 1 0 0 0 0 1 1 -1.19134 220 3 1.11 0.95 0 0 0 0 914.014 -534.071;
 80 1 0 0 0 0 1 1 -7.61812 220 3 1.11 0.95 0 0 0 0 919.525 -1006.81;
 81 1 0 0 0 0 1 1 -7.61881 220 3 1.11 0.95 0 0 0 0 990.331 -943.485;
 82 1 0 0 0 0 1 1 0.850183 220 3 1.11 0.95 0 0 0 0 1826.57 -867.407;
 83 2 0 0 0 0 1 1 -0.578336 220 3 1.11 0.95 0 0 0 0 1495.85 -49.7163;
 84 2 0 0 0 0 1 1 -0.582316 220 3 1.11 0.95 0 0 0 0 1607.74 -211.746;
 85 2 0 0 0 0 1 1 -2.45865 220 3 1.11 0.95 0 0 0 0 1166.7 -11.992;
 86 2 0 0 0 0 1 1 -2.45683 220 3 1.11 0.95 0 0 0 0 1035.32 -256.309;
 87 1 0 0 0 0 1 1 -3.20735 220 3 1.11 0.95 0 0 0 0 658.806 -526.478;
 88 1 0 0 0 0 1 1 -3.20753 220 3 1.11 0.95 0 0 0 0 611.095 -616.473;
 89 1 0 0 0 0 1 1 -1.89389 220 3 1.11 0.95 0 0 0 0 1224.37 -999.389;
 90 1 0 0 0 0 1 1 -1.81217 220 3 1.11 0.95 0 0 0 0 1516.44 -64.0756;
 91 1 0 0 0 0 1 1 -0.944976 220 3 1.11 0.95 0 0 0 0 1528.63 -855.443;
 92 1 0 0 0 0 1 1 -6.33036 400 3 1.05 0.95 0 0 0 0 760.745 -12.0192;
 93 2 0 0 0 0 1 1 -0.282133 220 3 1.11 0.95 0 0 0 0 1087.68 -830.97;
 94 1 0 0 0 0 1 1 -0.284532 220 3 1.11 0.95 0 0 0 0 1041.21 -787.974;
 95 2 0 0 0 0 1 1 -0.671452 220 3 1.11 0.95 0 0 0 0 1253.81 -929.058;
 96 1 0 0 0 0 1 1 -0.676494 220 3 1.11 0.95 0 0 0 0 1220.61 -1061.77;
 97 2 0 0 0 0 1 1 -6.74048 220 3 1.11 0.95 0 0 0 0 1612.49 -1626.9;
 98 1 0 0 0 0 1 1 -7.97414 400 3 1.05 0.95 0 0 0 0 632.488 -860.039;
 99 1 0 0 0 0 1 1 -7.96319 400 3 1.05 0.95 0 0 0 0 509.722 -641.631;
 100 1 0 0 0 0 1 1 -5.75192 400 3 1.05 0.95 0 0 0 0 596.834 -512.524;
 101 1 0 0 0 0 1 1 -5.74016 400 3 1.05 0.95 0 0 0 0 324.256 -272.88;
 102 1 0 0 0 0 1 1 -1.79473 220 3 1.11 0.95 0 0 0 0 1352.81 -1027.49;
 103 2 0 0 0 0 1 1 -1.53571 220 3 1.11 0.95 0 0 0 0 1148.67 291.769;
 104 2 0 0 0 0 1 1 -1.53084 220 3 1.11 0.95 0 0 0 0 1357.64 254.407;
 105 2 0 0 0 0 1 1 -5.75518 400 3 1.05 0.95 0 0 0 0 508.697 219.258;
 106 1 0 0 0 0 1 1 -5.76724 400 3 1.05 0.95 0 0 0 0 727.747 122.018;
 107 1 0 0 0 0 1 1 -4.53717 220 3 1.11 0.95 0 0 0 0 505.617 136.313;
 108 1 0 0 0 0 1 1 -4.29568 220 3 1.11 0.95 0 0 0 0 542.739 -5.70788;
 109 2 0 0 0 0 1 1 3.15291 220 3 1.11 0.95 0 0 0 0 1483.14 -500.537;
 110 2 0 0 0 0 1 1 3.1542 220 3 1.11 0.95 0 0 0 0 1615.12 -804.583;
 111 2 0 0 0 0 1 1 -13.2229 220 4 1.11 0.95 0 0 0 0 -503.244 329.838;
 112 1 0 0 0 0 1 1 -13.2192 220 4 1.11 0.95 0 0 0 0 -355.938 390.24;
 113 1 0 0 0 0 1 1 -22.8817 220 4 1.11 0.95 0 0 0 0 -544.652 1709.12;
 114 1 0 0 0 0 1 1 -21.3445 220 4 1.11 0.95 0 0 0 0 -574.477 1766.45;
 115 1 0 0 0 0 1 1 -17.8272 400 4 1.05 0.95 0 0 0 0 -471.431 1288.99;
 116 1 0 0 0 0 1 1 -17.8227 400 4 1.05 0.95 0 0 0 0 -279.546 1201.93;
 117 1 0 0 0 0 1 1 -29.2728 220 4 1.11 0.95 0 0 0 0 -1025.15 709.183;
 118 1 0 0 0 0 1 1 -35.7703 220 4 1.11 0.95 0 0 0 0 -2232.68 1568.48;
 119 1 0 0 0 0 1 1 -35.7703 220 4 1.11 0.95 0 0 0 0 -2231.67 1530;
 120 1 0 0 0 0 1 1 -34.5076 220 4 1.11 0.95 0 0 0 0 -1691.43 1689.06;
 121 1 0 0 0 0 1 1 -24.0724 220 4 1.11 0.95 0 0 0 0 -152.542 1688.91;
 122 1 0 0 0 0 1 1 -24.0724 220 4 1.11 0.95 0 0 0 0 -198.62 1657.5;
 123 2 0 0 0 0 1 1 -18.029 220 4 1.11 0.95 0 0 0 0 -720.683 568.759;
 124 2 0 0 0 0 1 1 -18.0238 220 4 1.11 0.95 0 0 0 0 -611.475 313.51;
 125 2 0 0 0 0 1 1 -31.2757 220 4 1.11 0.95 0 0 0 0 -2001.42 1625.31;
 126 1 0 0 0 0 1 1 -31.2703 220 4 1.11 0.95 0 0 0 0 -2038.18 1398.26;
 127 2 0 0 0 0 1 1 -25.4924 400 4 1.05 0.95 0 0 0 0 -1815.12 1037.94;
 128 1 0 0 0 0 1 1 -25.5032 400 4 1.05 0.95 0 0 0 0 -1580.71 982.851;
 129 1 0 0 0 0 1 1 -31.2114 220 4 1.11 0.95 0 0 0 0 -1033.56 1127.18;
 130 1 0 0 0 0 1 1 -30.9647 220 4 1.11 0.95 0 0 0 0 -1316.49 1602.78;
 131 2 0 0 0 0 1 1 -17.1182 220 4 1.11 0.95 0 0 0 0 -689.474 1548.15;
 132 2 0 0 0 0 1 1 -17.1395 220 4 1.11 0.95 0 0 0 0 -769.671 1539.08;
 133 1 0 0 0 0 1 1 -15.7592 400 4 1.05 0.95 0 0 0 0 -550.908 1465.3;
 134 1 0 0 0 0 1 1 -15.7555 400 4 1.05 0.95 0 0 0 0 -630.488 1476.59;
 135 1 0 0 0 0 1 1 -35.627 220 4 1.11 0.95 0 0 0 0 -2234.55 1777.1;
 136 1 0 0 0 0 1 1 -35.627 220 4 1.11 0.95 0 0 0 0 -2200.52 1793.01;
 137 1 0 0 0 0 1 1 -15.0236 400 4 1.05 0.95 0 0 0 0 191.742 1068.84;
 138 1 0 0 0 0 1 1 -15.0236 400 4 1.05 0.95 0 0 0 0 176.924 1124.14;
 139 2 0 0 0 0 1 1 -18.2755 220 4 1.11 0.95 0 0 0 0 -930.336 199.783;
 140 2 0 0 0 0 1 1 -18.2891 220 4 1.11 0.95 0 0 0 0 -870.488 353.458;
 141 1 0 0 0 0 1 1 -36.1436 220 4 1.11 0.95 0 0 0 0 -1546.75 682.798;
 142 1 0 0 0 0 1 1 -36.0498 220 4 1.11 0.95 0 0 0 0 -2267.03 1674.19;
 143 1 0 0 0 0 1 1 -30.6396 220 4 1.11 0.95 0 0 0 0 -1115.24 934.253;
 144 1 0 0 0 0 1 1 -30.6392 220 4 1.11 0.95 0 0 0 0 -1078.88 891.232;
 145 1 0 0 0 0 1 1 -30.178 400 4 1.05 0.95 0 0 0 0 -1324.37 1006.54;
 146 1 0 0 0 0 1 1 -30.178 400 4 1.05 0.95 0 0 0 0 -1325.19 955.313;
 147 1 0 0 0 0 1 1 -27.7036 220 4 1.11 0.95 0 0 0 0 -1000.27 1261.08;
 148 1 0 0 0 0 1 1 -27.6972 220 4 1.11 0.95 0 0 0 0 -935.088 1282.89;
 149 1 0 0 0 0 1 1 -31.5045 220 4 1.11 0.95 0 0 0 0 -1177.63 918.232;
 150 1 0 0 0 0 1 1 -22.1425 220 4 1.11 0.95 0 0 0 0 -401.679 1507.4;
 151 1 0 0 0 0 1 1 -22.1498 220 4 1.11 0.95 0 0 0 0 -452.383 1615.94;
 152 1 0 0 0 0 1 1 -19.6947 220 4 1.11 0.95 0 0 0 0 164.132 1282.76;
 153 1 0 0 0 0 1 1 -19.6947 220 4 1.11 0.95 0 0 0 0 145.47 1212.59;
 154 1 0 0 0 0 1 1 -29.889 220 4 1.11 0.95 0 0 0 0 -1114.03 1482.74;
 155 1 0 0 0 0 1 1 -28.8316 220 5 1.11 0.95 0 0 0 0 -1394.82 255.602;
 156 1 0 0 0 0 1 1 -30.4431 220 5 1.11 0.95 0 0 0 0 -1745.67 427.934;
 157 1 0 0 0 0 1 1 -28.3193 400 5 1.05 0.95 0 0 0 0 -1879.51 701.868;
 158 1 0 0 0 0 1 1 -28.3169 400 5 1.05 0.95 0 0 0 0 -1709.25 470.685;
 159 1 0 0 0 0 1 1 -26.9063 400 5 1.05 0.95 0 0 0 0 -1386.02 -137.006;
 160 1 0 0 0 0 1 1 -26.9145 400 5 1.05 0.95 0 0 0 0 -1520.29 -243.933;
 161 1 0 0 0 0 1 1 -33.1476 220 5 1.11 0.95 0 0 0 0 -1545.85 274.665;
 162 1 0 0 0 0 1 1 -33.1483 220 5 1.11 0.95 0 0 0 0 -1676.67 334.925;
 163 1 0 0 0 0 1 1 -28.6931 220 5 1.11 0.95 0 0 0 0 -1087.49 -322.583;
 164 1 0 0 0 0 1 1 -28.6971 220 5 1.11 0.95 0 0 0 0 -1138.04 -171.345;
 165 1 0 0 0 0 1 1 -24.779 400 5 1.05 0.95 0 0 0 0 -883.953 -218.935;
 166 1 0 0 0 0 1 1 -27.8077 220 5 1.11 0.95 0 0 0 0 -1261.64 222.284;
 167 1 0 0 0 0 1 1 -27.8044 220 5 1.11 0.95 0 0 0 0 -1148.06 149.251;
 168 1 0 0 0 0 1 1 -28.9786 400 5 1.05 0.95 0 0 0 0 -1561.43 -592.433;
 169 1 0 0 0 0 1 1 -28.9869 400 5 1.05 0.95 0 0 0 0 -1549.75 -807.355;
 170 1 0 0 0 0 1 1 -30.4383 220 5 1.11 0.95 0 0 0 0 -1147.25 -700.873;
 171 1 0 0 0 0 1 1 -30.4352 220 5 1.11 0.95 0 0 0 0 -1198.5 -950.023;
 172 1 0 0 0 0 1 1 -30.1483 220 5 1.11 0.95 0 0 0 0 -1118.97 -284.051;
 173 1 0 0 0 0 1 1 -30.1472 220 5 1.11 0.95 0 0 0 0 -1105.05 -224.3;
 174 1 0 0 0 0 1 1 -27.8574 220 5 1.11 0.95 0 0 0 0 -1018.03 -172.358;
 175 1 0 0 0 0 1 1 -27.8657 220 5 1.11 0.95 0 0 0 0 -1044.85 -118.249;
 176 2 0 0 0 0 1 1 -25.2505 400 5 1.05 0.95 0 0 0 0 -1574.27 305.45;
 177 2 0 0 0 0 1 1 -25.2497 400 5 1.05 0.95 0 0 0 0 -1497.66 124.68;
 178 1 0 0 0 0 1 1 -33.3599 220 5 1.11 0.95 0 0 0 0 -1805.59 522.894;
 179 1 0 0 0 0 1 1 -33.3549 220 5 1.11 0.95 0 0 0 0 -1815.5 410.76;
 180 2 0 0 0 0 2 1 -8.91372 400 6 1.05 0.95 0 0 0 0 680.637 78.7371;
 181 2 0 0 0 0 3 1 -8.60372 220 6 1.11 0.95 0 0 0 0 -288.639 -1951.43;
 182 2 0 0 0 0 5 1 -15.4595 400 6 1.05 0.95 0 0 0 0 -614.516 1424.62;
 183 1 0 0 0 0 3 1 -11.94 400 6 1.05 0.95 0 0 0 0 466.097 -1372.74;
 184 2 0 0 0 0 2 1 -6.23133 220 6 1.11 0.95 0 0 0 0 1516.1 -396.223;
 185 2 0 0 0 0 2 1 -9.78227 400 6 1.05 0.95 0 0 0 0 441.142 150.916;
 186 2 0 0 0 0 5 1 -31.4401 220 6 1.11 0.95 0 0 0 0 -2014.67 1486.82;
 187 1 0 0 0 0 1 1 -28.5345 110 1 1.12 0.95 0 0 0 0 -771.479 -1550.35;
 188 1 0 0 0 0 1 1 -36.6731 110 1 1.12 0.95 0 0 0 0 -1357.19 -1364.77;
 189 1 0 0 0 0 1 1 -33.7014 110 1 1.12 0.95 0 0 0 0 -1064.31 -1791.68;
 190 1 0 0 0 0 1 1 -6.29391 110 1 1.12 0.95 0 0 0 0 76.7339 343.076;
 191 1 0 0 0 0 1 1 -8.01019 110 1 1.12 0.95 0 0 0 0 218.569 294.178;
 192 2 0 0 0 0 1 1 -24.1438 110 1 1.12 0.95 0 0 0 0 -875.759 -1501.51;
 193 1 0 0 0 0 1 1 -23.9853 110 1 1.12 0.95 0 0 0 0 -841.271 -1402.83;
 194 1 0 0 0 0 1 1 -24.3587 110 1 1.12 0.95 0 0 0 0 -927.854 -1541.51;
 195 1 0 0 0 0 1 1 -29.8995 110 1 1.12 0.95 0 0 0 0 -908.146 -855.806;
 196 2 0 0 0 0 1 1 -34.0358 110 1 1.12 0.95 0 0 0 0 377.089 1615.55;
 197 1 0 0 0 0 1 1 -17.7441 110 1 1.12 0.95 0 0 0 0 139.103 1022.95;
 198 2 0 0 0 0 1 1 -29.7286 110 1 1.12 0.95 0 0 0 0 -508.62 -150.408;
 199 1 0 0 0 0 1 1 -9.36494 110 1 1.12 0.95 0 0 0 0 211.834 519.529;
 200 1 0 0 0 0 1 1 -28.3595 110 1 1.12 0.95 0 0 0 0 -816.48 -405.322;
...
];

ps.branch = [...
%from to R X B rateA rateB rateC tap shift status 
 16 1 0.00155 0.01169 0.0182 160 164 205 1 0 1 101.55 0 -101.55 0 0 0 1.0155 1.0155 0 0 0 1;
 355 1 0.00157 0.06612 0 160 164 205 1.0099 0 1 -101.55 0 101.55 0 0 0 1.0155 1.0155 0 0 0 1;
 17 2 0.00155 0.01169 0.0182 174 218 272.5 1 0 1 165.235 0 -165.235 0 0 0 1.65235 1.65235 0 0 0 1;
 354 2 0.00157 0.06612 0 174 218 272.5 1.022 0 1 -165.235 0 165.235 0 0 0 1.65235 1.65235 0 0 0 1;
 10 3 0.01068 0.07895 0.1226 274 274 342.5 1 0 1 155.851 0 -155.851 0 0 0 1.55851 1.55851 0 0 0 1;
 219 3 0.00165 0.06736 0 160 160 200 1.027 0 1 -57.7272 0 57.7272 0 0 0 0.577272 0.577272 0 0 0 1;
 220 3 0.00165 0.06736 0 160 160 200 0.9955 0 1 -98.1237 0 98.1237 0 0 0 0.981237 0.981237 0 0 0 1;
 7 4 0.01674 0.09711 0.14423 377 377 471.25 1 0 1 -255.534 0 255.534 0 0 0 2.55534 2.55534 0 0 0 1;
 11 4 0.00293 0.01599 0.02478 335 335 418.75 1 0 1 184.231 0 -184.231 0 0 0 1.84231 1.84231 0 0 0 1;
 14 4 0.00442 0.03223 0.04985 464 464 580 1 0 1 193.044 0 -193.044 0 0 0 1.93044 1.93044 0 0 0 1;
 16 4 0.00888 0.06665 0.08896 377 377 471.25 1 0 1 217.142 0 -217.142 0 0 0 2.17142 2.17142 0 0 0 1;
 22 4 0.00783 0.043 0.04962 350 350 437.5 1 0 1 -141.952 0 141.952 0 0 0 1.41952 1.41952 0 0 0 1;
 245 4 0.00165 0.06901 0 160 206 257.5 1.0594 0 1 -127.887 0 127.887 0 0 0 1.27887 1.27887 0 0 0 1;
 246 4 0.00165 0.06901 0 160 160 200 1.0448 0 1 -69.0444 0 69.0444 0 0 0 0.690444 0.690444 0 0 0 1;
 5 6 0.00064 0.0305 0 400 472 590 1.0435 -0.6 1 -346.93 0 346.93 0 0 0 3.4693 3.4693 0 0 0 1;
 7 5 0.00525 0.03988 0.06195 381 381 476.25 1 0 1 -111.34 0 111.34 0 0 0 1.1134 1.1134 0 0 0 1;
 10 5 0.01459 0.11219 0.16553 381 381 476.25 1 0 1 -28.6344 0 28.6344 0 0 0 0.286344 0.286344 0 0 0 1;
 309 5 0.00165 0.0686 0 160 164 205 1.0646 0 1 -103.478 0 103.478 0 0 0 1.03478 1.03478 0 0 0 1;
 309 5 0.00165 0.0686 0 160 164 205 1.0523 0 1 -103.478 0 103.478 0 0 0 1.03478 1.03478 0 0 0 1;
 6 8 0.00112 0.01329 0.34125 1316 1316 1645 1 0 1 -471.926 0 471.926 0 0 0 4.71926 4.71926 0 0 0 1;
 6 9 0.00299 0.03675 0.9184 1427 1427 1783.75 1 0 1 164.661 0 -164.661 0 0 0 1.64661 1.64661 0 0 0 1;
 15 6 0.00298 0.03417 0.93504 1427 1427 1783.75 1 0 1 -113.51 0 113.51 0 0 0 1.1351 1.1351 0 0 0 1;
 31 6 0.0015 0.01506 0.4032 1385 1385 1731.25 1 0 1 449.746 0 -449.746 0 0 0 4.49746 4.49746 0 0 0 1;
 310 6 0.0015 0.06188 0 312 363 453.75 1.0613 0 1 -296.571 0 296.571 0 0 0 2.96571 2.96571 0 0 0 1;
 12 7 0.01211 0.08742 0.14017 381 381 476.25 1 0 1 -45.5036 0 45.5036 0 0 0 0.455036 0.455036 0 0 0 1;
 13 7 0.00205 0.01326 0.02243 335 335 418.75 1 0 1 11.9717 0 -11.9717 0 0 0 0.119717 0.119717 0 0 0 1;
 19 7 0.0057 0.0407 0.06021 323 323 403.75 1 0 1 -49.1472 0 49.1472 0 0 0 0.491472 0.491472 0 0 0 1;
 21 7 0.00093 0.00651 0.01113 160 190 237.5 1 0 1 -145.668 0 145.668 0 0 0 1.45668 1.45668 0 0 0 1;
 29 7 0.01269 0.07498 0.1302 362 362 452.5 1 0 1 215.725 0 -215.725 0 0 0 2.15725 2.15725 0 0 0 1;
 321 7 0.00041 0.03368 0 250 250 312.5 1.0323 0 1 -195.466 0 195.466 0 0 0 1.95466 1.95466 0 0 0 1;
 322 7 0.00165 0.06775 0 167 208 260 1.0569 0 1 -158.785 0 158.785 0 0 0 1.58785 1.58785 0 0 0 1;
 8 18 0.00336 0.03977 1.02163 1316 1316 1645 1 0 1 -471.926 0 471.926 0 0 0 4.71926 4.71926 0 0 0 1;
 332 9 0.00087 0.05244 -0.02144 330 330 412.5 1.0781 0 1 -164.661 0 164.661 0 0 0 1.64661 1.64661 0 0 0 1;
 171 10 0.01409 0.10413 0.15972 464 464 580 1 0 1 -137.187 0 137.187 0 0 0 1.37187 1.37187 0 0 0 1;
 346 10 0.00124 0.06839 0 160 160 200 1.0054 0 1 -20.0252 0 20.0252 0 0 0 0.200252 0.200252 0 0 0 1;
 347 10 0.00124 0.06839 0 160 160 200 1.024 0 1 -102.119 0 102.119 0 0 0 1.02119 1.02119 0 0 0 1;
 16 11 0.0057 0.03952 0.07553 464 464 580 1 0 1 291.666 0 -291.666 0 0 0 2.91666 2.91666 0 0 0 1;
 17 11 0.0057 0.03952 0.07553 464 465 581.25 1 0 1 330.049 0 -330.049 0 0 0 3.30049 3.30049 0 0 0 1;
 111 11 0.01068 0.06196 0.09496 394 394 492.5 1 0 1 -173.938 0 173.938 0 0 0 1.73938 1.73938 0 0 0 1;
 352 11 0.00165 0.06901 0 163 216 270 1.0412 0 1 -154.598 0 154.598 0 0 0 1.54598 1.54598 0 0 0 1;
 353 11 0.00165 0.06901 0 160 160 200 1.0559 0 1 -108.948 0 108.948 0 0 0 1.08948 1.08948 0 0 0 1;
 140 12 0.01465 0.10589 0.17085 464 464 580 1 0 1 114.453 0 -114.453 0 0 0 1.14453 1.14453 0 0 0 1;
 359 12 0.00155 0.06612 0 160 160 200 1.0395 0 1 -105.305 0 105.305 0 0 0 1.05305 1.05305 0 0 0 1;
 360 12 0.00157 0.06612 0 160 160 200 1.059 0 1 -54.6517 0 54.6517 0 0 0 0.546517 0.546517 0 0 0 1;
 29 13 0.01345 0.08114 0.14113 339 339 423.75 1 0 1 197.391 0 -197.391 0 0 0 1.97391 1.97391 0 0 0 1;
 365 13 0.00165 0.06901 0 160 160 200 1.0312 0 1 -85.7873 0 85.7873 0 0 0 0.857873 0.857873 0 0 0 1;
 366 13 0.00165 0.06901 0 160 160 200 0.9872 0 1 -99.6324 0 99.6324 0 0 0 0.996324 0.996324 0 0 0 1;
 17 14 0.00384 0.02853 0.04588 464 467 583.75 1 0 1 342.362 0 -342.362 0 0 0 3.42362 3.42362 0 0 0 1;
 367 14 0.00157 0.06798 0 160 222 277.5 1.0664 0 1 -89.4308 0 89.4308 0 0 0 0.894308 0.894308 0 0 0 1;
 368 14 0.00165 0.06901 0 160 164 205 1.0777 0 1 -59.8869 0 59.8869 0 0 0 0.598869 0.598869 0 0 0 1;
 18 15 0.00358 0.04262 1.0944 1662 1662 2077.5 1 0 1 678.532 0 -678.532 0 0 0 6.78532 6.78532 0 0 0 1;
 15 165 0.00207 0.02474 0.664 831 831 1038.75 1 0 1 579.166 0 -579.166 0 0 0 5.79166 5.79166 0 0 0 1;
 374 15 0.0015 0.06188 0 250 316 395 1.1502 0 1 -212.875 0 212.875 0 0 0 2.12875 2.12875 0 0 0 1;
 16 18 0.00036 0.02519 0 500 500 625 1.0605 0 1 -30.7476 0 30.7476 0 0 0 0.307476 0.307476 0 0 0 1;
 16 73 0.00909 0.0624 0.11142 464 464 580 1 0 1 80.0214 0 -80.0214 0 0 0 0.800214 0.800214 0 0 0 1;
 17 18 0.00036 0.02519 0 500 500 625 1.0607 0 1 29.4707 0 -29.4707 0 0 0 0.294707 0.294707 0 0 0 1;
 17 74 0.00868 0.06405 0.09699 464 464 580 1 0 1 128.183 0 -128.183 0 0 0 1.28183 1.28183 0 0 0 1;
 20 18 0.00063 0.00749 0.39226 1427 1427 1783.75 1 0 1 -415.172 0 415.172 0 0 0 4.15172 4.15172 0 0 0 1;
 75 18 0.00219 0.02369 0.59584 1434 1434 1792.5 1 0 1 -171.84 0 171.84 0 0 0 1.7184 1.7184 0 0 0 1;
 18 76 0.00137 0.01625 0.41184 1662 1662 2077.5 1 0 1 251.146 0 -251.146 0 0 0 2.51146 2.51146 0 0 0 1;
 18 101 0.00231 0.02769 0.70144 1662 1662 2077.5 1 0 1 361.808 0 -361.808 0 0 0 3.61808 3.61808 0 0 0 1;
 124 19 0.01696 0.12366 0.19699 464 464 580 1 0 1 85.7573 0 -85.7573 0 0 0 0.857573 0.857573 0 0 0 1;
 425 19 0.00165 0.06818 0 160 189 236.25 1.0241 0 1 -134.904 0 134.904 0 0 0 1.34904 1.34904 0 0 0 1;
 67 20 0.00331 0.03425 0.85888 831 831 1038.75 1 0 1 -181.393 0 181.393 0 0 0 1.81393 1.81393 0 0 0 1;
 447 20 0.00137 0.06119 -0.01504 250 250 312.5 1.0796 0 1 -136.424 0 136.424 0 0 0 1.36424 1.36424 0 0 0 1;
 448 20 0.00137 0.06119 -0.01504 250 250 312.5 1.0923 0 1 -97.3548 0 97.3548 0 0 0 0.973548 0.973548 0 0 0 1;
 502 21 0.00165 0.07107 0 160 190 237.5 0.9922 0 1 -145.668 0 145.668 0 0 0 1.45668 1.45668 0 0 0 1;
 112 22 0.00465 0.02618 0.02962 362 362 452.5 1 0 1 -65.7321 0 65.7321 0 0 0 0.657321 0.657321 0 0 0 1;
 526 22 0.00165 0.06901 0 160 160 200 1.0685 0 1 -71.3025 0 71.3025 0 0 0 0.713025 0.713025 0 0 0 1;
 527 22 0.00165 0.06901 0 160 160 200 1.0424 0 1 -4.917 0 4.917 0 0 0 0.04917 0.04917 0 0 0 1;
 37 23 0.01163 0.07031 0.1058 394 394 492.5 1 0 1 -34.872 0 34.872 0 0 0 0.34872 0.34872 0 0 0 1;
 46 23 0.00837 0.04868 0.07348 457 457 571.25 1 0 1 44.226 0 -44.226 0 0 0 0.44226 0.44226 0 0 0 1;
 53 23 0.01122 0.06558 0.09835 274 274 342.5 1 0 1 97.0578 0 -97.0578 0 0 0 0.970578 0.970578 0 0 0 1;
 540 23 0.0014 0.0668 0 160 252 315 1.0182 0 1 -106.412 0 106.412 0 0 0 1.06412 1.06412 0 0 0 1;
 54 24 0.00769 0.05727 0.08789 160 160 200 1 0 1 60.6778 0 -60.6778 0 0 0 0.606778 0.606778 0 0 0 1;
 545 24 0.00151 0.06715 0 160 160 200 1.0161 0 1 -60.6778 0 60.6778 0 0 0 0.606778 0.606778 0 0 0 1;
 41 25 0.00556 0.04145 0.0636 274 274 342.5 1 0 1 102.746 0 -102.746 0 0 0 1.02746 1.02746 0 0 0 1;
 53 25 0.00452 0.03368 0.05169 464 464 580 1 0 1 -134.925 0 134.925 0 0 0 1.34925 1.34925 0 0 0 1;
 54 25 0.00019 0.0014 0.00213 464 464 580 1 0 1 94.8523 0 -94.8523 0 0 0 0.948523 0.948523 0 0 0 1;
 564 25 0.00157 0.07808 0 160 160 200 1.0276 0 1 -62.6732 0 62.6732 0 0 0 0.626732 0.626732 0 0 0 1;
 38 26 0.00698 0.05196 0.07967 160 160 200 1 0 1 76.3285 0 -76.3285 0 0 0 0.763285 0.763285 0 0 0 1;
 568 26 0.00149 0.06616 0 160 160 200 1.013 0 1 -76.3285 0 76.3285 0 0 0 0.763285 0.763285 0 0 0 1;
 28 27 0 0.0001 0 876 876 1095 1 0 1 78.5058 0 -78.5058 0 0 0 0.785058 0.785058 0 0 0 1;
 33 27 0.0024 0.01494 0.02253 160 160 200 1 0 1 -110.641 0 110.641 0 0 0 1.10641 1.10641 0 0 0 1;
 48 27 0.01213 0.06215 0.09371 362 362 452.5 1 0 1 -115.69 0 115.69 0 0 0 1.1569 1.1569 0 0 0 1;
 27 74 0.01116 0.07231 0.10367 304 304 380 1 0 1 -147.825 0 147.825 0 0 0 1.47825 1.47825 0 0 0 1;
 47 28 0.00248 0.01798 0.02759 464 464 580 1 0 1 -75.2856 0 75.2856 0 0 0 0.752856 0.752856 0 0 0 1;
 28 88 0.01488 0.08161 0.1148 362 362 452.5 1 0 1 -153.791 0 153.791 0 0 0 1.53791 1.53791 0 0 0 1;
 30 29 0 0.0001 0 876 876 1095 1 0 1 156.056 0 -156.056 0 0 0 1.56056 1.56056 0 0 0 1;
 29 32 0.00034 0.02097 0 500 500 625 1.0619 0 1 -265.113 0 265.113 0 0 0 2.65113 2.65113 0 0 0 1;
 45 29 0.00545 0.04021 0.06699 464 464 580 1 0 1 -75.8064 0 75.8064 0 0 0 0.758064 0.758064 0 0 0 1;
 48 29 0.00574 0.04283 0.06573 464 464 580 1 0 1 -34.093 0 34.093 0 0 0 0.34093 0.34093 0 0 0 1;
 613 29 0.00157 0.06775 0 160 160 200 1.0016 0 1 -51.2781 0 51.2781 0 0 0 0.512781 0.512781 0 0 0 1;
 46 30 0.00545 0.04021 0.06699 464 464 580 1 0 1 -76.1152 0 76.1152 0 0 0 0.761152 0.761152 0 0 0 1;
 49 30 0.00707 0.04541 0.06931 362 362 452.5 1 0 1 -32.6564 0 32.6564 0 0 0 0.326564 0.326564 0 0 0 1;
 32 31 0 0.0001 0 1593 1593 1991.25 1 0 1 -602.695 0 602.695 0 0 0 6.02695 6.02695 0 0 0 1;
 39 31 0.00176 0.02144 0.57344 1385 1385 1731.25 1 0 1 75.5188 0 -75.5188 0 0 0 0.755188 0.755188 0 0 0 1;
 36 32 0.00167 0.0189 0.54176 498 498 622.5 1 0 1 -337.582 0 337.582 0 0 0 3.37582 3.37582 0 0 0 1;
 615 33 0.00163 0.06946 0 160 160 200 1.0291 0 1 -110.641 0 110.641 0 0 0 1.10641 1.10641 0 0 0 1;
 35 34 0 0.0001 0 1593 1593 1991.25 1 0 1 -162.803 0 162.803 0 0 0 1.62803 1.62803 0 0 0 1;
 34 51 0.00113 0.01406 0.37488 1385 1385 1731.25 1 0 1 -245.659 0 245.659 0 0 0 2.45659 2.45659 0 0 0 1;
 183 34 0.00188 0.02287 0.6432 1385 1385 1731.25 1 0 1 -82.8559 0 82.8559 0 0 0 0.828559 0.828559 0 0 0 1;
 183 35 0.00188 0.02287 0.6432 1385 1385 1731.25 1 0 1 -82.1441 0 82.1441 0 0 0 0.821441 0.821441 0 0 0 1;
 617 35 0.00135 0.06052 0 250 250 312.5 1.0654 0 1 -80.659 0 80.659 0 0 0 0.80659 0.80659 0 0 0 1;
 644 36 0.00135 0.06052 0 250 273 341.25 1.1003 0 1 -170.223 0 170.223 0 0 0 1.70223 1.70223 0 0 0 1;
 645 36 0.00153 0.06156 0 250 271 338.75 1.0971 0 1 -167.359 0 167.359 0 0 0 1.67359 1.67359 0 0 0 1;
 38 37 0 0.0001 0 876 876 1095 1 0 1 15.2447 0 -15.2447 0 0 0 0.152447 0.152447 0 0 0 1;
 663 37 0.00157 0.06616 0 160 160 200 1.0009 0 1 -50.1167 0 50.1167 0 0 0 0.501167 0.501167 0 0 0 1;
 55 38 0.00316 0.02076 0.03146 394 394 492.5 1 0 1 91.5731 0 -91.5731 0 0 0 0.915731 0.915731 0 0 0 1;
 40 39 0 0.0001 0 1593 1593 1991.25 1 0 1 163.431 0 -163.431 0 0 0 1.63431 1.63431 0 0 0 1;
 682 39 0.00139 0.05984 0 250 250 312.5 1.0603 0 1 -87.912 0 87.912 0 0 0 0.87912 0.87912 0 0 0 0;
 44 40 0.00109 0.01277 0.34176 1385 1385 1731.25 1 0 1 340.565 0 -340.565 0 0 0 3.40565 3.40565 0 0 0 1;
 679 40 0.0014 0.06235 0 250 261 326.25 1.0996 0 1 -177.134 0 177.134 0 0 0 1.77134 1.77134 0 0 0 1;
 42 41 0 0.0001 0 876 876 1095 1 0 1 -153.518 0 153.518 0 0 0 1.53518 1.53518 0 0 0 1;
 41 43 0.00081 0.03 0 400 400 500 1.0377 0 1 -55.285 0 55.285 0 0 0 0.55285 0.55285 0 0 0 1;
 80 41 0.00372 0.0438 0.10096 609 609 761.25 1 0 1 14.1681 0 -14.1681 0 0 0 0.141681 0.141681 0 0 0 1;
 47 42 0.00882 0.06564 0.10066 274 274 342.5 1 0 1 -84.8675 0 84.8675 0 0 0 0.848675 0.848675 0 0 0 1;
 54 42 0.00355 0.02643 0.04056 392 392 490 1 0 1 -155.53 0 155.53 0 0 0 1.5553 1.5553 0 0 0 1;
 689 42 0.00145 0.06839 0 160 160 200 1.0037 0 1 -84.4273 0 84.4273 0 0 0 0.844273 0.844273 0 0 0 1;
 44 43 0 0.0001 0 1593 1593 1991.25 1 0 1 -246.078 0 246.078 0 0 0 2.46078 2.46078 0 0 0 1;
 99 43 0.00169 0.01994 0.50624 831 831 1038.75 1 0 1 -82.2588 0 82.2588 0 0 0 0.822588 0.822588 0 0 0 1;
 50 44 0.00094 0.01097 0.29376 1662 1662 2077.5 1 0 1 -289.136 0 289.136 0 0 0 2.89136 2.89136 0 0 0 1;
 46 45 0 0.0001 0 876 876 1095 1 0 1 31.8892 0 -31.8892 0 0 0 0.318892 0.318892 0 0 0 1;
 49 45 0.01048 0.06097 0.09205 394 394 492.5 1 0 1 25.9284 0 -25.9284 0 0 0 0.259284 0.259284 0 0 0 1;
 706 47 0.00157 0.06775 0 160 160 200 1.0249 0 1 -80.0982 0 80.0982 0 0 0 0.800982 0.800982 0 0 0 1;
 707 47 0.00165 0.06775 0 160 160 200 1.0201 0 1 -80.0549 0 80.0549 0 0 0 0.800549 0.800549 0 0 0 1;
 49 48 0 0.0001 0 876 876 1095 1 0 1 -71.1868 0 71.1868 0 0 0 0.711868 0.711868 0 0 0 1;
 717 48 0.00163 0.06783 0 160 160 200 1.023 0 1 -78.5964 0 78.5964 0 0 0 0.785964 0.785964 0 0 0 1;
 716 49 0.00143 0.06831 0 160 160 200 1.0238 0 1 -77.9148 0 77.9148 0 0 0 0.779148 0.779148 0 0 0 1;
 51 50 0 0.0001 0 1593 1593 1991.25 1 0 1 -357.51 0 357.51 0 0 0 3.5751 3.5751 0 0 0 1;
 98 50 0.0015 0.01788 0.4512 831 831 1038.75 1 0 1 85.9658 0 -85.9658 0 0 0 0.859658 0.859658 0 0 0 1;
 100 50 0.00469 0.05544 1.4048 831 831 1038.75 1 0 1 97.6836 0 -97.6836 0 0 0 0.976836 0.976836 0 0 0 1;
 726 50 0.00139 0.0608 0 250 289 361.25 1.0815 0 1 -115.276 0 115.276 0 0 0 1.15276 1.15276 0 0 0 1;
 727 51 0.0014 0.06235 0 250 250 312.5 1.0819 0 1 -111.851 0 111.851 0 0 0 1.11851 1.11851 0 0 0 1;
 53 52 0.00151 0.00878 0.01316 160 160 200 1 0 1 37.8671 0 -37.8671 0 0 0 0.378671 0.378671 0 0 0 1;
 754 52 0.00163 0.06754 0 160 160 200 1.0317 0 1 -37.8671 0 37.8671 0 0 0 0.378671 0.378671 0 0 0 1;
 181 55 0.01434 0.08353 0.12603 394 394 492.5 1 0 1 175 0 -175 0 0 0 1.75 1.75 0 0 0 0;
 778 55 0.00161 0.06762 0 160 177 221.25 0.9979 0 1 -83.4269 0 83.4269 0 0 0 0.834269 0.834269 0 0 0 1;
 74 56 0.00207 0.01281 0.02052 394 394 492.5 1 0 1 111.793 0 -111.793 0 0 0 1.11793 1.11793 0 0 0 1;
 796 56 0.00207 0.06777 -0.003 160 176 220 1.0389 0 1 -111.793 0 111.793 0 0 0 1.11793 1.11793 0 0 0 1;
 81 57 0.00083 0.00496 0.00726 137 137 171.25 1 0 1 25.278 0 -25.278 0 0 0 0.25278 0.25278 0 0 0 0;
 80 58 0.00083 0.00496 0.00726 137 137 171.25 1 0 1 24.178 0 -24.178 0 0 0 0.24178 0.24178 0 0 0 0;
 63 59 0.00207 0.01405 0.02265 362 362 452.5 1 0 1 77.366 0 -77.366 0 0 0 0.77366 0.77366 0 0 0 1;
 82 59 0.01116 0.07045 0.11606 362 362 452.5 1 0 1 12.9539 0 -12.9539 0 0 0 0.129539 0.129539 0 0 0 1;
 821 59 0.00165 0.06798 -0.00319 160 160 200 1.0178 0 1 -90.3198 0 90.3198 0 0 0 0.903198 0.903198 0 0 0 1;
 60 85 0.01095 0.0593 0.08441 362 362 452.5 1 0 1 -45.0437 0 45.0437 0 0 0 0.450437 0.450437 0 0 0 1;
 104 60 0.00599 0.04091 0.07212 464 464 580 1 0 1 104.875 0 -104.875 0 0 0 1.04875 1.04875 0 0 0 1;
 834 60 0.00145 0.06921 -0.00532 160 160 200 0.9936 0 1 -71.7821 0 71.7821 0 0 0 0.717821 0.717821 0 0 0 1;
 836 60 0.00372 0.12583 -0.00242 100 122 152.5 1.0154 0 1 -78.1366 0 78.1366 0 0 0 0.781366 0.781366 0 0 0 1;
 62 61 0 0.0001 0 876 876 1095 1 0 1 22.5904 0 -22.5904 0 0 0 0.225904 0.225904 0 0 0 1;
 64 61 0.00517 0.03843 0.05876 464 464 580 1 0 1 -61.5358 0 61.5358 0 0 0 0.615358 0.615358 0 0 0 1;
 109 61 0.00083 0.0062 0.00958 464 464 580 1 0 1 248.9 0 -248.9 0 0 0 2.489 2.489 0 0 0 0;
 184 61 0.01219 0.07066 0.11742 274 353 441.25 1 0 1 -209.955 0 209.955 0 0 0 2.09955 2.09955 0 0 0 1;
 82 62 0.00165 0.01095 0.01955 464 464 580 1 0 1 -226.31 0 226.31 0 0 0 2.2631 2.2631 0 0 0 1;
 110 62 0.00083 0.0062 0.00949 464 464 580 1 0 1 248.9 0 -248.9 0 0 0 2.489 2.489 0 0 0 0;
 71 63 0.00475 0.03079 0.04879 362 362 452.5 1 0 1 -174.039 0 174.039 0 0 0 1.74039 1.74039 0 0 0 1;
 91 63 0.00455 0.02769 0.04608 394 394 492.5 1 0 1 -119.449 0 119.449 0 0 0 1.19449 1.19449 0 0 0 1;
 94 63 0.00186 0.0126 0.02236 464 464 580 1 0 1 -171.019 0 171.019 0 0 0 1.71019 1.71019 0 0 0 1;
 96 63 0.00826 0.04236 0.06118 362 362 452.5 1 0 1 -67.0195 0 67.0195 0 0 0 0.670195 0.670195 0 0 0 1;
 64 69 0.00434 0.02975 0.05266 464 464 580 1 0 1 90.9533 0 -90.9533 0 0 0 0.909533 0.909533 0 0 0 1;
 79 64 0.00351 0.02438 0.03998 362 362 452.5 1 0 1 -150.703 0 150.703 0 0 0 1.50703 1.50703 0 0 0 1;
 93 64 0.00186 0.0126 0.02236 464 464 580 1 0 1 -165.657 0 165.657 0 0 0 1.65657 1.65657 0 0 0 1;
 95 64 0.00826 0.04236 0.06118 362 362 452.5 1 0 1 -65.3155 0 65.3155 0 0 0 0.653155 0.653155 0 0 0 1;
 90 65 0.00785 0.04132 0.06389 394 394 492.5 1 0 1 -23.3159 0 23.3159 0 0 0 0.233159 0.233159 0 0 0 1;
 65 91 0.00227 0.01446 0.02585 394 394 492.5 1 0 1 -38.0449 0 38.0449 0 0 0 0.380449 0.380449 0 0 0 1;
 66 67 0.00031 0.02094 0 500 546 682.5 1.0616 0 1 -173.34 0 173.34 0 0 0 1.7334 1.7334 0 0 0 1;
 66 68 0.00248 0.02355 0.04763 457 457 571.25 1 0 1 -85.2193 0 85.2193 0 0 0 0.852193 0.852193 0 0 0 1;
 152 66 0.01033 0.08285 0.13959 464 628 785 1 0 1 -258.56 0 258.56 0 0 0 2.5856 2.5856 0 0 0 1;
 138 67 0.00194 0.02056 0.51584 866 1015 1268.75 1 0 1 -821.922 0 821.922 0 0 0 8.21922 8.21922 0 0 0 1;
 911 67 0.00156 0.06269 -0.00992 250 250 312.5 1.0656 0 1 89.1897 0 -89.1897 0 0 0 0.891897 0.891897 0 0 0 1;
 912 67 0.00156 0.06269 -0.00992 250 250 312.5 1.066 0 1 41.1198 0 -41.1198 0 0 0 0.411198 0.411198 0 0 0 1;
 68 78 0.00579 0.04153 0.06621 464 464 580 1 0 1 -59.7399 0 59.7399 0 0 0 0.597399 0.597399 0 0 0 1;
 978 68 0.00165 0.06694 -0.0031 160 160 200 1.0083 0 1 9.71981 0 -9.71981 0 0 0 0.0971981 0.0971981 0 0 0 1;
 979 68 0.00145 0.06653 -0.00319 160 160 200 1.006 0 1 15.7596 0 -15.7596 0 0 0 0.157596 0.157596 0 0 0 1;
 83 69 0.00145 0.00992 0.01762 464 464 580 1 0 1 10.2433 0 -10.2433 0 0 0 0.102433 0.102433 0 0 0 1;
 995 69 0.00145 0.0655 -0.00252 160 160 200 1.0107 0 1 -93.8697 0 93.8697 0 0 0 0.938697 0.938697 0 0 0 1;
 996 69 0.00145 0.07045 -0.00252 160 160 200 1.0025 0 1 -7.32697 0 7.32697 0 0 0 0.0732697 0.0732697 0 0 0 1;
 70 73 0.00145 0.00971 0.01626 457 457 571.25 1 0 1 -155.418 0 155.418 0 0 0 1.55418 1.55418 0 0 0 1;
 107 70 0.00062 0.00413 0.00697 457 457 571.25 1 0 1 -155.418 0 155.418 0 0 0 1.55418 1.55418 0 0 0 1;
 72 71 0 0.0001 0 876 876 1095 1 0 1 0 0 -0 0 0 0 0 0 0 0 0 0;
 86 71 0.00165 0.00971 0.01423 362 362 452.5 1 0 1 -60.5103 0 60.5103 0 0 0 0.605103 0.605103 0 0 0 1;
 1059 71 0.00145 0.06983 -0.00232 160 160 200 1.0193 0 1 -69.672 0 69.672 0 0 0 0.69672 0.69672 0 0 0 1;
 1060 71 0.00165 0.06777 -0.00281 160 160 200 0.9558 0 1 -43.857 0 43.857 0 0 0 0.43857 0.43857 0 0 0 0;
 73 75 0.00075 0.02444 -0.00832 330 330 412.5 1.0544 1.7 1 -69.4349 0 69.4349 0 0 0 0.694349 0.694349 0 0 0 1;
 87 73 0.00393 0.02851 0.04501 464 464 580 1 0 1 5.96205 0 -5.96205 0 0 0 0.0596205 0.0596205 0 0 0 1;
 74 76 0.00075 0.02469 -0.008 330 330 412.5 1.0606 1.7 1 -137.166 0 137.166 0 0 0 1.37166 1.37166 0 0 0 1;
 74 108 0.00083 0.00517 0.00871 464 464 580 1 0 1 5.73133 0 -5.73133 0 0 0 0.0573133 0.0573133 0 0 0 1;
 76 75 0 0.0001 0 1593 1593 1991.25 1 0 1 -102.405 0 102.405 0 0 0 1.02405 1.02405 0 0 0 1;
 76 105 0.00244 0.02756 0.768 845 845 1056.25 1 0 1 216.385 0 -216.385 0 0 0 2.16385 2.16385 0 0 0 1;
 84 77 0.00393 0.02665 0.04617 457 457 571.25 1 0 1 130 0 -130 0 0 0 1.3 1.3 0 0 0 1;
 85 77 0.00186 0.01384 0.02284 464 464 580 1 0 1 13.7048 0 -13.7048 0 0 0 0.137048 0.137048 0 0 0 1;
 1095 77 0.00165 0.06694 -0.0029 160 160 200 1.0162 0 1 -89.1078 0 89.1078 0 0 0 0.891078 0.891078 0 0 0 1;
 1096 77 0.00145 0.06736 -0.00658 160 160 200 1.0085 0 1 -54.597 0 54.597 0 0 0 0.54597 0.54597 0 0 0 1;
 78 103 0.00496 0.03368 0.05963 464 464 580 1 0 1 -171.73 0 171.73 0 0 0 1.7173 1.7173 0 0 0 1;
 1106 78 0.00145 0.06839 -0.00319 160 200 250 1.0272 0 1 -111.99 0 111.99 0 0 0 1.1199 1.1199 0 0 0 1;
 88 79 0.0031 0.02335 0.0362 464 464 580 1 0 1 -150.703 0 150.703 0 0 0 1.50703 1.50703 0 0 0 1;
 81 80 0 0.0001 0 876 876 1095 1 0 1 -12.0645 0 12.0645 0 0 0 0.120645 0.120645 0 0 0 1;
 80 96 0.01591 0.0876 0.11684 362 362 452.5 1 0 1 -138.304 0 138.304 0 0 0 1.38304 1.38304 0 0 0 1;
 1114 80 0.00165 0.06694 -0.00232 160 160 200 0.9876 0 1 -87.8933 0 87.8933 0 0 0 0.878933 0.878933 0 0 0 1;
 93 81 0.01777 0.11674 0.16359 362 362 452.5 1 0 1 109.688 0 -109.688 0 0 0 1.09688 1.09688 0 0 0 1;
...
];

ps.gen = [...
%bus Pg Qg Qmax Qmin Vsp mBase status Pmax Pmin mu_Px mu_Pn mu_Qx mu_Qn type cost part_fact RRU RRD 
 10 400 0 120 0 1 168 1 400 70 0 0 0 0 2 117.95 0 0 0 0 0;
 16 720 0 440 -40 1 823 1 720 120 0 0 0 0 2 48.89 0 0 0 0 0;
 17 1080 0 660 -60 1 1234 1 1080 120 0 0 0 0 2 98.47 0 0 0 0 0;
 18 2520 0 1540 -140 1 2879 1 2520 120 0 0 0 0 3 128.73 1 0 0 0 0;
 29 181.703 0 240 0 1 511 1 400 70 0 0 0 0 2 158.23 0 0 0 0 0;
 30 293.406 0 240 0 1 511 1 800 70 0 0 0 0 2 165.62 0 0 0 0 0;
 31 1000 0 350 0 1 420 1 1000 150 0 0 0 0 2 71.22 0 0 0 0 0;
 41 200 0 120 0 1 241 1 200 70 0 0 0 0 2 102.25 0 0 0 0 0;
 42 184.496 0 120 0 1 241 1 410 70 0 0 0 0 2 147.83 0 0 0 0 0;
 43 410 0 240 0 1 482 1 410 70 0 0 0 0 2 75.37 0 0 0 0 0;
 44 410 0 240 0 1 482 1 410 70 0 0 0 0 2 86.01 0 0 0 0 0;
 45 42.2 0 21 0 1 49 1 42.2 39.14 0 0 0 0 2 0 0 0 0 0 0;
 63 650 0 302 0 1 473 1 650 145 0 0 0 0 2 68.74 0 0 0 0 0;
 64 450 0 311 2 1 475 1 450 145 0 0 0 0 2 81.91 0 0 0 0 0;
 67 750 0 449 0 1 864 1 750 220 0 0 0 0 2 81.88 0 0 0 0 0;
 83 225 0 190 -89 1 239 1 225 140 0 0 0 0 2 58.78 0 0 0 0 0;
 84 225 0 190 -89 1 251 1 225 140 0 0 0 0 2 85.57 0 0 0 0 0;
 85 120 0 125 -50 1 133 1 120 40 0 0 0 0 2 101.38 0 0 0 0 0;
 86 120 0 125 -50 1 133 1 120 40 0 0 0 0 2 122.43 0 0 0 0 0;
 93 120 0 90 5 1 123 1 120 80 0 0 0 0 2 96.62 0 0 0 0 0;
 95 110 0 68 27 1 105 1 110 50 0 0 0 0 2 106.73 0 0 0 0 0;
 97 87.6 0 68 27 1 105 1 87.6 83.26 0 0 0 0 2 0 0 0 0 0 0;
 103 271.703 0 177 -82 1 239 1 400 160 0 0 0 0 2 151.94 0 0 0 0 0;
 104 225 0 379 -177 1 490 1 225 140 0 0 0 0 2 107.51 0 0 0 0 0;
 105 430 0 353 -165 1 502 1 430 160 0 0 0 0 2 103.53 0 0 0 0 0;
 109 250 0 65 0 1 277 1 250 80 0 0 0 0 2 0 0 0 0 0 0;
 110 250 0 65 0 1 280 1 250 80 0 0 0 0 2 0 0 0 0 0 0;
 111 360 0 270 0 1 401 1 360 40 0 0 0 0 2 136.48 0 0 0 0 0;
 123 50.7183 0 40 0 1 98 1 110 20 0 0 0 0 2 157.46 0 0 0 0 0;
 124 125 0 90 0 1 132 1 125 45 0 0 0 0 2 83.97 0 0 0 0 0;
 125 310.161 0 360 0 1 654 1 860 70 0 0 0 0 2 170.74 0 0 0 0 0;
 127 690 0 360 0 1 540 1 690 70 0 0 0 0 2 80.91 0 0 0 0 0;
 131 941.39 0 360 0 1 696 1 1060 70 0 0 0 0 2 147.6 0 0 0 0 0;
 132 237.554 0 480 0 1 732 1 600 70 0 0 0 0 2 158.75 0 0 0 0 0;
 139 576.224 0 360 0 1 714 1 600 70 0 0 0 0 2 146.94 0 0 0 0 0;
 140 200 0 120 0 1 240 1 200 70 0 0 0 0 2 96.32 0 0 0 0 0;
 176 600 0 220 -120 1 430 1 600 70 0 0 0 0 2 0 0 0 0 0 0;
 177 200 0 220 -120 1 430 1 200 70 0 0 0 0 2 0 0 0 0 0 0;
 180 0 0 99999 -99999 1 7485 1 0 0 0 0 0 0 2 0 0 0 0 0 0;
 181 175 0 99999 -99999 1 210 1 175 174 0 0 0 0 2 0 0 0 0 0 0;
 182 307.59 0 99999 -99999 1 13465 1 307.59 306 0 0 0 0 2 0 0 0 0 0 0;
 184 0 0 99999 -99999 1 8353 1 0 0 0 0 0 0 2 0 0 0 0 0 0;
 185 0 0 99999 -99999 1 14254 1 0 0 0 0 0 0 2 0 0 0 0 0 0;
 186 0 0 99999 -99999 1 7401 1 0 0 0 0 0 0 2 0 0 0 0 0 0;
 192 95 0 50 0 1 114 1 95 90.25 0 0 0 0 2 0 0 0 0 0 0;
 196 0.9 0 1 0 1 1 1 0.9 0.86 0 0 0 0 2 0 0 0 0 0 0;
 198 0.8 0 1 0 1 1 1 0.8 0.76 0 0 0 0 2 0 0 0 0 0 0;
 205 15 0 10 0 1 18 1 15 14.25 0 0 0 0 2 0 0 0 0 0 0;
 213 11 0 8 0 1 13 1 11 10.45 0 0 0 0 2 0 0 0 0 0 0;
 264 2.5 0 2 0 1 3 1 2.5 2.38 0 0 0 0 2 0 0 0 0 0 0;
 269 6 0 5 0 1 7 1 6 5.7 0 0 0 0 2 0 0 0 0 0 0;
 277 70 0 42 0 1 84 1 70 66.5 0 0 0 0 2 0 0 0 0 0 0;
 278 60 0 40 0 1 72 1 60 57 0 0 0 0 2 0 0 0 0 0 0;
 279 60 0 40 0 1 72 1 60 57 0 0 0 0 2 0 0 0 0 0 0;
 281 120 0 90 0 1 144 1 120 114 0 0 0 0 2 0 0 0 0 0 0;
 282 40 0 40 0 1 48 1 40 38 0 0 0 0 2 0 0 0 0 0 0;
 289 2.5 0 3 0 1 3 1 2.5 2.38 0 0 0 0 2 0 0 0 0 0 0;
 294 2 0 1 0 1 2 1 2 1.9 0 0 0 0 2 0 0 0 0 0 0;
 314 1.5 0 1 0 1 2 1 1.5 1.43 0 0 0 0 2 0 0 0 0 0 0;
 328 44 0 21 0 1 53 1 44 41.8 0 0 0 0 2 0 0 0 0 0 0;
 329 44 0 21 0 1 53 1 44 41.8 0 0 0 0 2 0 0 0 0 0 0;
 330 44 0 21 0 1 53 1 44 41.8 0 0 0 0 2 0 0 0 0 0 0;
 331 43 0 21 0 1 52 1 43 40.85 0 0 0 0 2 0 0 0 0 0 0;
 334 1.5 0 1 0 1 2 1 1.5 1.43 0 0 0 0 2 0 0 0 0 0 0;
 346 200 0 120 0 1 180 1 200 70 0 0 0 0 2 134.98 0 0 0 0 0;
 347 10 0 15 0 1 12 1 10 10 0 0 0 0 2 0 0 0 0 0 0;
 359 1.5 0 1 0 1 2 1 1.5 1.43 0 0 0 0 2 0 0 0 0 0 0;
 365 5.1 0 3 0 1 6 1 5.1 4.85 0 0 0 0 2 0 0 0 0 0 0;
 382 8 0 5 0 1 10 1 8 7.6 0 0 0 0 2 0 0 0 0 0 0;
 383 8 0 5 0 1 10 1 8 7.6 0 0 0 0 2 0 0 0 0 0 0;
 385 6 0 4 0 1 7 1 6 5.7 0 0 0 0 2 0 0 0 0 0 0;
 390 4.5 0 3 0 1 5 1 4.5 4.28 0 0 0 0 2 0 0 0 0 0 0;
 395 10 0 8 0 1 12 1 10 9.5 0 0 0 0 2 0 0 0 0 0 0;
 404 3 0 3 0 1 4 1 3 2.85 0 0 0 0 2 0 0 0 0 0 0;
 426 3.2 0 2 0 1 4 1 3.2 3.04 0 0 0 0 2 0 0 0 0 0 0;
 444 1 0 1 0 1 1 1 1 0.95 0 0 0 0 2 0 0 0 0 0 0;
 451 4.5 0 3 0 1 5 1 4.5 4.28 0 0 0 0 2 0 0 0 0 0 0;
 482 1 0 1 0 1 1 1 1 0.95 0 0 0 0 2 0 0 0 0 0 0;
 492 2 0 1 0 1 2 1 2 1.9 0 0 0 0 2 0 0 0 0 0 0;
 493 234 0 130 0 1 281 1 234 222.3 0 0 0 0 2 0 0 0 0 0 0;
 494 234 0 130 0 1 281 1 234 222.3 0 0 0 0 2 0 0 0 0 0 0;
 514 115 0 90 0 1 138 1 115 109.25 0 0 0 0 2 0 0 0 0 0 0;
 515 115 0 90 0 1 138 1 115 109.25 0 0 0 0 2 0 0 0 0 0 0;
 525 6 0 4 0 1 7 1 6 5.7 0 0 0 0 2 0 0 0 0 0 0;
 536 6 0 6 0 1 7 1 6 5.7 0 0 0 0 2 0 0 0 0 0 0;
 537 3.5 0 3 0 1 4 1 3.5 3.33 0 0 0 0 2 0 0 0 0 0 0;
 556 2.7 0 1 0 1 3 1 2.7 2.57 0 0 0 0 2 0 0 0 0 0 0;
 580 1.6 0 1 0 1 2 1 1.6 1.52 0 0 0 0 2 0 0 0 0 0 0;
 584 2.7 0 2 0 1 3 1 2.7 2.57 0 0 0 0 2 0 0 0 0 0 0;
 585 4 0 2 0 1 5 1 4 3.8 0 0 0 0 2 0 0 0 0 0 0;
 607 0.8 0 0 0 1 1 1 0.8 0.76 0 0 0 0 2 0 0 0 0 0 0;
 612 200 0 120 0 1 256 1 200 70 0 0 0 0 2 142.94 0 0 0 0 0;
 613 200 0 120 0 1 256 1 200 70 0 0 0 0 2 128.22 0 0 0 0 0;
 615 1.4 0 1 0 1 2 1 1.4 1.33 0 0 0 0 2 0 0 0 0 0 0;
 623 7.6 0 5 0 1 9 1 7.6 7.22 0 0 0 0 2 0 0 0 0 0 0;
 639 9.6 0 4 0 1 12 1 9.6 9.12 0 0 0 0 2 0 0 0 0 0 0;
 651 4.7 0 2 0 1 6 1 4.7 4.47 0 0 0 0 2 0 0 0 0 0 0;
 654 1.4 0 1 0 1 2 1 1.4 1.33 0 0 0 0 2 0 0 0 0 0 0;
 664 6.2 0 6 0 1 7 1 6.2 5.89 0 0 0 0 2 0 0 0 0 0 0;
 670 2.7 0 2 0 1 3 1 2.7 2.57 0 0 0 0 2 0 0 0 0 0 0;
 674 1 0 0 0 1 1 1 1 0.95 0 0 0 0 2 0 0 0 0 0 0;
 688 126.41 0 120 0 1 242 1 202 70 0 0 0 0 2 141.73 0 0 0 0 0;
 692 1.4 0 1 0 1 2 1 1.4 1.33 0 0 0 0 2 0 0 0 0 0 0;
 699 3.8 0 2 0 1 5 1 3.8 3.61 0 0 0 0 2 0 0 0 0 0 0;
 712 1.2 0 1 0 1 1 1 1.2 1.14 0 0 0 0 2 0 0 0 0 0 0;
 730 6.9 0 3 0 1 8 1 6.9 6.56 0 0 0 0 2 0 0 0 0 0 0;
 732 1.1 0 1 0 1 1 1 1.1 1.05 0 0 0 0 2 0 0 0 0 0 0;
 735 4.1 0 2 0 1 5 1 4.1 3.9 0 0 0 0 2 0 0 0 0 0 0;
 740 4 0 1 0 1 5 1 4 3.8 0 0 0 0 2 0 0 0 0 0 0;
 744 134 0 60 0 1 161 1 134 127.3 0 0 0 0 2 0 0 0 0 0 0;
 754 80 0 30 0 1 54 1 80 10 0 0 0 0 2 100.82 0 0 0 0 0;
 755 154.814 0 80 0 1 110 1 250 85 0 0 0 0 2 151.9 0 0 0 0 0;
 760 3.1 0 2 0 1 4 1 3.1 2.95 0 0 0 0 2 0 0 0 0 0 0;
 766 2.1 0 1 0 1 3 1 2.1 2 0 0 0 0 2 0 0 0 0 0 0;
 784 0.7 0 0 0 1 1 1 0.7 0.67 0 0 0 0 2 0 0 0 0 0 0;
 790 49.8 0 35 35 1 60 1 49.8 47.31 0 0 0 0 2 0 0 0 0 0 0;
 795 1.89 0 1 1 1 2 1 1.89 1.8 0 0 0 0 2 0 0 0 0 0 0;
 798 2.99 0 3 3 1 4 1 2.99 2.84 0 0 0 0 2 0 0 0 0 0 0;
 814 44.92 0 42 0 1 54 1 44.92 42.67 0 0 0 0 2 0 0 0 0 0 0;
 834 55 0 83 0 1 110 1 55 23 0 0 0 0 2 114.15 0 0 0 0 0;
 878 2.99 0 0 0 1 4 1 2.99 2.84 0 0 0 0 2 0 0 0 0 0 0;
 884 2.49 0 0 0 1 3 1 2.49 2.37 0 0 0 0 2 0 0 0 0 0 0;
 892 31.87 0 42 6 1 38 1 31.87 30.28 0 0 0 0 2 0 0 0 0 0 0;
 895 8.96 0 7 7 1 11 1 8.96 8.51 0 0 0 0 2 0 0 0 0 0 0;
 901 3.68 0 2 2 1 4 1 3.68 3.5 0 0 0 0 2 0 0 0 0 0 0;
 910 4.58 0 3 3 1 6 1 4.58 4.35 0 0 0 0 2 0 0 0 0 0 0;
 911 370 0 224 0 1 415 1 370 280 0 0 0 0 2 87.95 0 0 0 0 0;
 912 370 0 224 0 1 415 1 370 280 0 0 0 0 2 130.25 0 0 0 0 0;
 914 15.93 0 10 10 1 19 1 15.93 15.13 0 0 0 0 2 0 0 0 0 0 0;
 917 2.09 0 0 0 1 3 1 2.09 1.99 0 0 0 0 2 0 0 0 0 0 0;
 919 21.91 0 12 12 1 26 1 21.91 20.81 0 0 0 0 2 0 0 0 0 0 0;
 920 1.99 0 0 0 1 2 1 1.99 1.89 0 0 0 0 2 0 0 0 0 0 0;
 929 63.73 0 50 29 1 77 1 63.73 60.54 0 0 0 0 2 0 0 0 0 0 0;
 959 2.49 0 1 1 1 3 1 2.49 2.37 0 0 0 0 2 0 0 0 0 0 0;
 968 0.7 0 0 0 1 1 1 0.7 0.67 0 0 0 0 2 0 0 0 0 0 0;
 993 3.98 0 1 1 1 5 1 3.98 3.78 0 0 0 0 2 0 0 0 0 0 0;
 994 1.99 0 1 1 1 2 1 1.99 1.89 0 0 0 0 2 0 0 0 0 0 0;
 995 47.9257 0 38 0 1 60 1 100 20 0 0 0 0 2 145.97 0 0 0 0 0;
 996 33.9629 0 38 0 1 60 1 50 20 0 0 0 0 2 137.58 0 0 0 0 0;
 997 33.9629 0 38 0 1 60 1 50 20 0 0 0 0 2 147.36 0 0 0 0 0;
 1004 4.28 0 3 3 1 5 1 4.28 4.07 0 0 0 0 2 0 0 0 0 0 0;
 1024 0.1 0 0 0 1 0 1 0.1 0.1 0 0 0 0 2 0 0 0 0 0 0;
 1027 24.9 0 13 13 1 30 1 24.9 23.66 0 0 0 0 2 0 0 0 0 0 0;
 1028 2.99 0 3 3 1 4 1 2.99 2.84 0 0 0 0 2 0 0 0 0 0 0;
 1029 24.9 0 14 14 1 30 1 24.9 23.66 0 0 0 0 2 0 0 0 0 0 0;
 1053 59.76 0 53 0 1 72 1 59.76 56.77 0 0 0 0 2 0 0 0 0 0 0;
 1054 29.88 0 31 0 1 36 1 29.88 28.39 0 0 0 0 2 0 0 0 0 0 0;
 1105 7.97 0 10 10 1 10 1 7.97 7.57 0 0 0 0 2 0 0 0 0 0 0;
 1106 22.91 0 13 13 1 28 1 22.91 21.76 0 0 0 0 2 0 0 0 0 0 0;
 1107 10.56 0 3 3 1 13 1 10.56 10.03 0 0 0 0 2 0 0 0 0 0 0;
 1138 44.82 0 41 0 1 54 1 44.82 42.58 0 0 0 0 2 0 0 0 0 0 0;
 1140 230 0 199 -87 1 252 1 230 70 0 0 0 0 2 82.92 0 0 0 0 0;
 1141 157.75 0 190 -89 1 251 1 225 70 0 0 0 0 2 133.59 0 0 0 0 0;
 1175 37.84 0 20 20 1 45 1 37.84 35.95 0 0 0 0 2 0 0 0 0 0 0;
 1182 73.5109 0 125 -50 1 133 1 120 40 0 0 0 0 2 152.95 0 0 0 0 0;
 1183 120 0 125 -50 1 133 1 120 40 0 0 0 0 2 67.35 0 0 0 0 0;
 1184 120 0 125 -50 1 133 1 120 40 0 0 0 0 2 134.93 0 0 0 0 0;
 1191 106.56 0 129 -47 1 128 1 106.56 101.23 0 0 0 0 2 0 0 0 0 0 0;
 1192 250 0 125 -50 1 123 1 250 80 0 0 0 0 2 61.32 0 0 0 0 0;
 1201 99.59 0 90 0 1 120 1 99.59 94.61 0 0 0 0 2 0 0 0 0 0 0;
 1202 99.59 0 90 0 1 120 1 99.59 94.61 0 0 0 0 2 0 0 0 0 0 0;
 1203 99.59 0 90 0 1 120 1 99.59 94.61 0 0 0 0 2 0 0 0 0 0 0;
 1232 51.79 0 41 0 1 62 1 51.79 49.2 0 0 0 0 2 0 0 0 0 0 0;
 1233 14.94 0 41 0 1 18 1 14.94 14.19 0 0 0 0 2 0 0 0 0 0 0;
 1244 18.92 0 20 20 1 23 1 18.92 17.97 0 0 0 0 2 0 0 0 0 0 0;
 1247 15.93 0 12 12 1 19 1 15.93 15.13 0 0 0 0 2 0 0 0 0 0 0;
 1250 197.19 0 151 0 1 237 1 197.19 187.33 0 0 0 0 2 0 0 0 0 0 0;
 1268 0.5 0 0 0 1 1 1 0.5 0.48 0 0 0 0 2 0 0 0 0 0 0;
 1316 1 0 0 0 1 1 1 1 0.95 0 0 0 0 2 0 0 0 0 0 0;
 1325 1.39 0 0 0 1 2 1 1.39 1.32 0 0 0 0 2 0 0 0 0 0 0;
 1349 1.49 0 0 0 1 2 1 1.49 1.42 0 0 0 0 2 0 0 0 0 0 0;
 1356 1 0 2 2 1 1 1 1 0.95 0 0 0 0 2 0 0 0 0 0 0;
 1359 0.8 0 1 1 1 1 1 0.8 0.76 0 0 0 0 2 0 0 0 0 0 0;
 1393 12.75 0 11 0 1 15 1 12.75 12.11 0 0 0 0 2 0 0 0 0 0 0;
 1403 4.28 0 1 1 1 5 1 4.28 4.07 0 0 0 0 2 0 0 0 0 0 0;
 1416 371 0 180 10 1 246 1 371 80 0 0 0 0 2 61.4 0 0 0 0 0;
 1417 120 0 120 5 1 123 1 120 80 0 0 0 0 2 114.99 0 0 0 0 0;
 1418 20 0 90 5 1 123 1 20 5 0 0 0 0 2 122.64 0 0 0 0 0;
 1426 495 0 68 27 1 106 1 495 20 0 0 0 0 2 118.84 0 0 0 0 0;
 1429 0.2 0 0 0 1 0 1 0.2 0.19 0 0 0 0 2 0 0 0 0 0 0;
 1469 0.6 0 0 0 1 1 1 0.6 0.57 0 0 0 0 2 0 0 0 0 0 0;
 1475 2.09 0 2 2 1 3 1 2.09 1.99 0 0 0 0 2 0 0 0 0 0 0;
 1504 31.17 0 2 2 1 37 1 31.17 29.61 0 0 0 0 2 0 0 0 0 0 0;
 1505 48.8 0 4 4 1 59 1 48.8 46.36 0 0 0 0 2 0 0 0 0 0 0;
 1514 2.29 0 1 1 1 3 1 2.29 2.18 0 0 0 0 2 0 0 0 0 0 0;
 1534 0.3 0 0 0 1 0 1 0.3 0.29 0 0 0 0 2 0 0 0 0 0 0;
 1536 222.833 0 190 -89 1 251 1 225 160 0 0 0 0 2 143.83 0 0 0 0 0;
 1537 225 0 203 -95 1 255 1 225 160 0 0 0 0 2 67.48 0 0 0 0 0;
 1538 215 0 190 -89 1 255 1 215 70 0 0 0 0 2 88 0 0 0 0 0;
 1542 8.96 0 3 3 1 11 1 8.96 8.51 0 0 0 0 2 0 0 0 0 0 0;
 1543 1.2 0 0 0 1 1 1 1.2 1.14 0 0 0 0 2 0 0 0 0 0 0;
 1550 1.79 0 1 1 1 2 1 1.79 1.7 0 0 0 0 2 0 0 0 0 0 0;
 1566 54.77 0 47 20 1 66 1 54.77 52.03 0 0 0 0 2 0 0 0 0 0 0;
 1587 63.74 0 27 27 1 77 1 63.74 60.55 0 0 0 0 2 0 0 0 0 0 0;
 1600 17.43 0 3 3 1 21 1 17.43 16.56 0 0 0 0 2 0 0 0 0 0 0;
 1602 120 0 90 0 1 144 1 120 40 0 0 0 0 2 129.86 0 0 0 0 0;
 1603 120 0 90 0 1 144 1 120 40 0 0 0 0 2 108.16 0 0 0 0 0;
 1609 0.3 0 0 0 1 0 1 0.3 0.29 0 0 0 0 2 0 0 0 0 0 0;
 1617 2 0 0 0 1 2 1 2 1.9 0 0 0 0 2 0 0 0 0 0 0;
 1620 1.6 0 0 0 1 2 1 1.6 1.52 0 0 0 0 2 0 0 0 0 0 0;
...
];

ps.shunt = [...
%bus P Q frac_S frac_Z status type value 
 10 13.453 9 1 0 1 1 1000 0;
 16 60.368 100 1 0 1 1 1000 0;
 17 84.7 150 1 0 1 1 1000 0;
 18 168.3 350 1 0 1 1 1000 0;
 29 28.578 60 1 0 1 1 1000 0;
 30 28.578 60 1 0 1 1 1000 0;
 31 23.078 50 1 0 1 1 1000 0;
 41 13.189 30 1 0 1 1 1000 0;
 42 13.189 30 1 0 1 1 1000 0;
 43 26.378 60 1 0 1 1 1000 0;
 44 26.378 60 1 0 1 1 1000 0;
 45 175.824 75 1 0 1 1 1000 0;
 57 25.278 10.96 1 0 1 1 1000 0;
 58 24.178 5.79 1 0 1 1 1000 0;
 63 41.107 52.69 1 0 1 1 1000 0;
 64 38.907 55.32 1 0 1 1 1000 0;
 65 14.729 2.02 1 0 1 1 1000 0;
 67 66.44 92.1 1 0 1 1 1000 0;
 83 17.589 22.97 1 0 1 1 1000 0;
 84 17.369 22.27 1 0 1 1 1000 0;
 85 10.989 17.01 1 0 1 1 1000 0;
 86 10.989 16.66 1 0 1 1 1000 0;
 87 12.199 16.22 1 0 1 1 1000 0;
 93 10.989 16.39 1 0 1 1 1000 0;
 95 7.579 8.15 1 0 1 1 1000 0;
 97 9.559 5.26 1 0 1 1 1000 0;
 103 19.899 23.76 1 0 1 1 1000 0;
 104 37.048 46.11 1 0 1 1 1000 0;
 105 37.158 62.95 1 0 1 1 1000 0;
 109 1.1 22.36 1 0 1 1 1000 0;
 110 1.1 22.18 1 0 1 1 1000 0;
 111 29.139 18 1 0 1 1 1000 0;
 123 6.05 7 1 0 1 1 1000 0;
 124 9.669 17 1 0 1 1 1000 0;
 125 39.27 18.3 1 0 1 1 1000 0;
 126 27.808 15.9 1 0 1 1 1000 0;
 127 28.281 15.3 1 0 1 1 1000 0;
 131 75.537 70 1 0 1 1 1000 0;
 132 36.3 45 1 0 1 1 1000 0;
 139 36.52 22.6 1 0 1 1 1000 0;
 140 32.153 19.6 1 0 1 1 1000 0;
 176 0 40 1 0 1 1 1000 0;
 177 0 40 1 0 1 1 1000 0;
 180 373.835 49.6 1 0 1 1 1000 0;
 183 165 0 1 0 1 1 1000 0;
 184 349.074 50.3 1 0 1 1 1000 0;
 185 398.673 36.7 1 0 1 1 1000 0;
 186 36.663 1 1 0 1 1 1000 0;
 187 7.832 1.5 1 0 1 1 1000 0;
 188 8.393 1 1 0 1 1 1000 0;
 189 10.747 8.7 1 0 1 1 1000 0;
 190 6.732 1.5 1 0 1 1 1000 0;
 191 6.732 1.6 1 0 1 1 1000 0;
 192 33.616 12 1 0 1 1 1000 0;
 193 16.808 3 1 0 1 1 1000 0;
 195 8.954 2 1 0 1 1 1000 0;
 196 7.612 1.5 1 0 1 1 1000 0;
 197 7.612 1.5 1 0 1 1 1000 0;
 198 13.552 1.7 1 0 1 1 1000 0;
 199 1.573 0.5 1 0 1 1 1000 0;
 200 1.188 0.5 1 0 1 1 1000 0;
 201 6.171 0.5 1 0 1 1 1000 0;
 202 20.174 2 1 0 1 1 1000 0;
 203 12.21 1.6 1 0 1 1 1000 0;
 205 7.612 2 1 0 1 1 1000 0;
 206 12.32 1 1 0 1 1 1000 0;
 207 8.052 1.6 1 0 1 1 1000 0;
 208 -8.052 -4.5 1 0 1 1 1000 0;
 209 10.296 0.8 1 0 1 1 1000 0;
 210 16.698 4.4 1 0 1 1 1000 0;
 211 9.625 0.2 1 0 1 1 1000 0;
 212 11.198 1.5 1 0 1 1 1000 0;
 213 -2.244 -1 1 0 1 1 1000 0;
 214 13.222 0.5 1 0 1 1 1000 0;
 215 7.612 2 1 0 1 1 1000 0;
 216 9.735 0.5 1 0 1 1 1000 0;
 217 2.134 0.4 1 0 1 1 1000 0;
 218 13.442 1.5 1 0 1 1 1000 0;
 219 2.805 0.5 1 0 1 1 1000 0;
 220 2.805 0.5 1 0 1 1 1000 0;
 221 4.488 0.5 1 0 1 1 1000 0;
 222 7.183 0.4 1 0 1 1 1000 0;
 223 20.515 4 1 0 1 1 1000 0;
 224 21.846 2.5 1 0 1 1 1000 0;
 225 19.03 2 1 0 1 1 1000 0;
 226 26.884 1.5 1 0 1 1 1000 0;
 227 6.171 1 1 0 1 1 1000 0;
 228 12.54 1.1 1 0 1 1 1000 0;
 229 12.1 2.7 1 0 1 1 1000 0;
 230 8.393 1 1 0 1 1 1000 0;
 231 8.734 1.1 1 0 1 1 1000 0;
 232 8.734 1.1 1 0 1 1 1000 0;
 233 2.024 0.8 1 0 1 1 1000 0;
 234 36.806 28 1 0 1 1 1000 0;
 235 37.136 28 1 0 1 1 1000 0;
 236 1.122 0.5 1 0 1 1 1000 0;
 237 15.345 1.7 1 0 1 1 1000 0;
 238 10.978 1 1 0 1 1 1000 0;
 239 16.808 1.5 1 0 1 1 1000 0;
 240 12.32 1.5 1 0 1 1 1000 0;
 241 11.198 3 1 0 1 1 1000 0;
 242 1.342 0.1 1 0 1 1 1000 0;
 244 1.122 0 1 0 1 1 1000 0;
 245 13.332 5.4 1 0 1 1 1000 0;
 246 -8.954 -3.6 1 0 1 1 1000 0;
 247 12.32 1.5 1 0 1 1 1000 0;
 248 3.366 0.5 1 0 1 1 1000 0;
 249 10.076 0 1 0 1 1 1000 0;
 250 30.481 3 1 0 1 1 1000 0;
 251 23.518 4 1 0 1 1 1000 0;
 252 23.518 4 1 0 1 1 1000 0;
 253 16.357 4.3 1 0 1 1 1000 0;
 254 21.846 3.5 1 0 1 1 1000 0;
 255 11.198 1 1 0 1 1 1000 0;
 256 6.171 0 1 0 1 1 1000 0;
 257 7.832 0.2 1 0 1 1 1000 0;
 258 4.488 0.3 1 0 1 1 1000 0;
 259 22.957 4.2 1 0 1 1 1000 0;
 260 11.759 1.5 1 0 1 1 1000 0;
 261 8.734 2 1 0 1 1 1000 0;
 262 0.22 0 1 0 1 1 1000 0;
 263 5.83 1 1 0 1 1 1000 0;
 264 13.442 1 1 0 1 1 1000 0;
 265 13.442 1 1 0 1 1 1000 0;
 266 9.174 1.6 1 0 1 1 1000 0;
 267 11.418 3 1 0 1 1 1000 0;
 268 16.357 3.7 1 0 1 1 1000 0;
 269 16.808 4 1 0 1 1 1000 0;
 270 4.037 0.5 1 0 1 1 1000 0;
 271 4.037 0.5 1 0 1 1 1000 0;
 272 10.186 3 1 0 1 1 1000 0;
 273 14.223 3.7 1 0 1 1 1000 0;
 274 28.237 7.4 1 0 1 1 1000 0;
 275 25.542 6.7 1 0 1 1 1000 0;
 276 15.686 5.1 1 0 1 1 1000 0;
 277 57.354 20.4 1 0 1 1 1000 0;
 278 27.445 9.7 1 0 1 1 1000 0;
 279 27.445 9.7 1 0 1 1 1000 0;
 281 33.726 11.9 1 0 1 1 1000 0;
 282 14.454 5.1 1 0 1 1 1000 0;
 283 18.722 0.2 1 0 1 1 1000 0;
 284 2.805 0.5 1 0 1 1 1000 0;
 285 8.954 1.5 1 0 1 1 1000 0;
 286 32.725 4.1 1 0 1 1 1000 0;
 287 13.442 4 1 0 1 1 1000 0;
 288 14.454 3.8 1 0 1 1 1000 0;
 289 23.408 6.1 1 0 1 1 1000 0;
 290 19.052 3 1 0 1 1 1000 0;
 291 18.491 5.4 1 0 1 1 1000 0;
 292 19.052 5 1 0 1 1 1000 0;
 293 8.173 2.1 1 0 1 1 1000 0;
 294 16.808 3 1 0 1 1 1000 0;
 295 23.408 3.4 1 0 1 1 1000 0;
 296 19.393 5.1 1 0 1 1 1000 0;
 297 9.405 2 1 0 1 1 1000 0;
 298 7.722 1.6 1 0 1 1 1000 0;
 299 52.866 13.8 1 0 1 1 1000 0;
 300 23.518 9 1 0 1 1 1000 0;
 301 6.842 1.3 1 0 1 1 1000 0;
 302 6.732 1.3 1 0 1 1 1000 0;
 303 6.952 0.5 1 0 1 1 1000 0;
 304 19.613 5.1 1 0 1 1 1000 0;
 305 8.283 1.1 1 0 1 1 1000 0;
 306 23.518 4 1 0 1 1 1000 0;
 307 20.174 4 1 0 1 1 1000 0;
 308 5.61 0 1 0 1 1 1000 0;
 311 35.64 5.7 1 0 1 1 1000 0;
 313 7.832 0.5 1 0 1 1 1000 0;
 314 8.503 1.5 1 0 1 1 1000 0;
 315 10.417 0 1 0 1 1 1000 0;
 316 17.82 4 1 0 1 1 1000 0;
 317 7.832 2 1 0 1 1 1000 0;
 318 6.732 2 1 0 1 1 1000 0;
 319 0.891 0.3 1 0 1 1 1000 0;
 320 7.832 1 1 0 1 1 1000 0;
 323 10.978 1.8 1 0 1 1 1000 0;
 324 12.32 1.6 1 0 1 1 1000 0;
 325 15.015 0.3 1 0 1 1 1000 0;
 326 7.282 1.2 1 0 1 1 1000 0;
 327 4.488 0.1 1 0 1 1 1000 0;
 328 50.413 23 1 0 1 1 1000 0;
 329 50.413 23 1 0 1 1 1000 0;
 330 53.196 22 1 0 1 1 1000 0;
 331 53.196 22 1 0 1 1 1000 0;
 333 10.417 0.4 1 0 1 1 1000 0;
 334 18.491 0.7 1 0 1 1 1000 0;
 335 4.488 1 1 0 1 1 1000 0;
 337 19.613 5.5 1 0 1 1 1000 0;
 338 2.805 1.2 1 0 1 1 1000 0;
 339 4.378 1.7 1 0 1 1 1000 0;
 340 12.32 1.5 1 0 1 1 1000 0;
 341 12.1 0.1 1 0 1 1 1000 0;
 342 17.93 1.6 1 0 1 1 1000 0;
 343 1.122 0.5 1 0 1 1 1000 0;
 344 14.564 5 1 0 1 1 1000 0;
 345 19.503 4 1 0 1 1 1000 0;
 346 20.174 13 1 0 1 1 1000 0;
 347 8.954 4.5 1 0 1 1 1000 0;
 348 2.244 0.5 1 0 1 1 1000 0;
 349 22.407 4.5 1 0 1 1 1000 0;
...
];

ps.areas = [...
 1 18;
];

ps.gencost = [...
 2 0 0 3 0 117.95 0;
 2 0 0 3 0 48.89 0;
 2 0 0 3 0 98.47 0;
 2 0 0 3 0 128.73 0;
 2 0 0 3 0 158.23 0;
 2 0 0 3 0 165.62 0;
 2 0 0 3 0 71.22 0;
 2 0 0 3 0 102.25 0;
 2 0 0 3 0 147.83 0;
 2 0 0 3 0 75.37 0;
 2 0 0 3 0 86.01 0;
 2 0 0 3 0 0 0;
 2 0 0 3 0 68.74 0;
 2 0 0 3 0 81.91 0;
 2 0 0 3 0 81.88 0;
 2 0 0 3 0 58.78 0;
 2 0 0 3 0 85.57 0;
 2 0 0 3 0 101.38 0;
 2 0 0 3 0 122.43 0;
 2 0 0 3 0 96.62 0;
 2 0 0 3 0 106.73 0;
 2 0 0 3 0 0 0;
 2 0 0 3 0 151.94 0;
 2 0 0 3 0 107.51 0;
 2 0 0 3 0 103.53 0;
 2 0 0 3 0 0 0;
 2 0 0 3 0 0 0;
 2 0 0 3 0 136.48 0;
 2 0 0 3 0 157.46 0;
 2 0 0 3 0 83.97 0;
 2 0 0 3 0 170.74 0;
 2 0 0 3 0 80.91 0;
 2 0 0 3 0 147.6 0;
 2 0 0 3 0 158.75 0;
 2 0 0 3 0 146.94 0;
 2 0 0 3 0 96.32 0;
 2 0 0 3 0 0 0;
 2 0 0 3 0 0 0;
 2 0 0 3 0 0 0;
 2 0 0 3 0 0 0;
 2 0 0 3 0 0 0;
 2 0 0 3 0 0 0;
 2 0 0 3 0 0 0;
 2 0 0 3 0 0 0;
 2 0 0 3 0 0 0;
 2 0 0 3 0 0 0;
 2 0 0 3 0 0 0;
 2 0 0 3 0 0 0;
 2 0 0 3 0 0 0;
 2 0 0 3 0 0 0;
 2 0 0 3 0 0 0;
 2 0 0 3 0 0 0;
 2 0 0 3 0 0 0;
 2 0 0 3 0 0 0;
 2 0 0 3 0 0 0;
 2 0 0 3 0 0 0;
 2 0 0 3 0 0 0;
 2 0 0 3 0 0 0;
 2 0 0 3 0 0 0;
 2 0 0 3 0 0 0;
 2 0 0 3 0 0 0;
 2 0 0 3 0 0 0;
 2 0 0 3 0 0 0;
 2 0 0 3 0 0 0;
 2 0 0 3 0 134.98 0;
 2 0 0 3 0 0 0;
 2 0 0 3 0 0 0;
 2 0 0 3 0 0 0;
 2 0 0 3 0 0 0;
 2 0 0 3 0 0 0;
 2 0 0 3 0 0 0;
 2 0 0 3 0 0 0;
 2 0 0 3 0 0 0;
 2 0 0 3 0 0 0;
 2 0 0 3 0 0 0;
 2 0 0 3 0 0 0;
 2 0 0 3 0 0 0;
 2 0 0 3 0 0 0;
 2 0 0 3 0 0 0;
 2 0 0 3 0 0 0;
 2 0 0 3 0 0 0;
 2 0 0 3 0 0 0;
 2 0 0 3 0 0 0;
 2 0 0 3 0 0 0;
 2 0 0 3 0 0 0;
 2 0 0 3 0 0 0;
 2 0 0 3 0 0 0;
 2 0 0 3 0 0 0;
 2 0 0 3 0 0 0;
 2 0 0 3 0 0 0;
 2 0 0 3 0 0 0;
 2 0 0 3 0 142.94 0;
 2 0 0 3 0 128.22 0;
 2 0 0 3 0 0 0;
 2 0 0 3 0 0 0;
 2 0 0 3 0 0 0;
 2 0 0 3 0 0 0;
 2 0 0 3 0 0 0;
 2 0 0 3 0 0 0;
 2 0 0 3 0 0 0;
 2 0 0 3 0 0 0;
 2 0 0 3 0 141.73 0;
 2 0 0 3 0 0 0;
 2 0 0 3 0 0 0;
 2 0 0 3 0 0 0;
 2 0 0 3 0 0 0;
 2 0 0 3 0 0 0;
 2 0 0 3 0 0 0;
 2 0 0 3 0 0 0;
 2 0 0 3 0 0 0;
 2 0 0 3 0 100.82 0;
 2 0 0 3 0 151.9 0;
 2 0 0 3 0 0 0;
 2 0 0 3 0 0 0;
 2 0 0 3 0 0 0;
 2 0 0 3 0 0 0;
 2 0 0 3 0 0 0;
 2 0 0 3 0 0 0;
 2 0 0 3 0 0 0;
 2 0 0 3 0 114.15 0;
 2 0 0 3 0 0 0;
 2 0 0 3 0 0 0;
 2 0 0 3 0 0 0;
 2 0 0 3 0 0 0;
 2 0 0 3 0 0 0;
 2 0 0 3 0 0 0;
 2 0 0 3 0 87.95 0;
 2 0 0 3 0 130.25 0;
 2 0 0 3 0 0 0;
 2 0 0 3 0 0 0;
 2 0 0 3 0 0 0;
 2 0 0 3 0 0 0;
 2 0 0 3 0 0 0;
 2 0 0 3 0 0 0;
 2 0 0 3 0 0 0;
 2 0 0 3 0 0 0;
 2 0 0 3 0 0 0;
 2 0 0 3 0 145.97 0;
 2 0 0 3 0 137.58 0;
 2 0 0 3 0 147.36 0;
 2 0 0 3 0 0 0;
 2 0 0 3 0 0 0;
 2 0 0 3 0 0 0;
 2 0 0 3 0 0 0;
 2 0 0 3 0 0 0;
 2 0 0 3 0 0 0;
 2 0 0 3 0 0 0;
 2 0 0 3 0 0 0;
 2 0 0 3 0 0 0;
 2 0 0 3 0 0 0;
 2 0 0 3 0 0 0;
 2 0 0 3 0 82.92 0;
 2 0 0 3 0 133.59 0;
 2 0 0 3 0 0 0;
 2 0 0 3 0 152.95 0;
 2 0 0 3 0 67.35 0;
 2 0 0 3 0 134.93 0;
 2 0 0 3 0 0 0;
 2 0 0 3 0 61.32 0;
 2 0 0 3 0 0 0;
 2 0 0 3 0 0 0;
 2 0 0 3 0 0 0;
 2 0 0 3 0 0 0;
 2 0 0 3 0 0 0;
 2 0 0 3 0 0 0;
 2 0 0 3 0 0 0;
 2 0 0 3 0 0 0;
 2 0 0 3 0 0 0;
 2 0 0 3 0 0 0;
 2 0 0 3 0 0 0;
 2 0 0 3 0 0 0;
 2 0 0 3 0 0 0;
 2 0 0 3 0 0 0;
 2 0 0 3 0 0 0;
 2 0 0 3 0 0 0;
 2 0 0 3 0 61.4 0;
 2 0 0 3 0 114.99 0;
 2 0 0 3 0 122.64 0;
 2 0 0 3 0 118.84 0;
 2 0 0 3 0 0 0;
 2 0 0 3 0 0 0;
 2 0 0 3 0 0 0;
 2 0 0 3 0 0 0;
 2 0 0 3 0 0 0;
 2 0 0 3 0 0 0;
 2 0 0 3 0 0 0;
 2 0 0 3 0 143.83 0;
 2 0 0 3 0 67.48 0;
 2 0 0 3 0 88 0;
 2 0 0 3 0 0 0;
 2 0 0 3 0 0 0;
 2 0 0 3 0 0 0;
 2 0 0 3 0 0 0;
 2 0 0 3 0 0 0;
 2 0 0 3 0 0 0;
 2 0 0 3 0 129.86 0;
 2 0 0 3 0 108.16 0;
 2 0 0 3 0 0 0;
 2 0 0 3 0 0 0;
 2 0 0 3 0 0 0;
...
];

